%chk=C:\Users\User\Desktop\gaussian\pentane\pentane.chk
# hf/3-21g geom=connectivity

Title Card Required

0 1
 C    -1.90955600   -1.27806400    0.36440600
 C    -1.55826000   -0.00013400   -0.34901700
 C    -1.90675800    1.28006600    0.36172900
 O    -0.98924600   -0.00189700   -1.43201200
 H    -2.96638800   -1.28589000    0.63194800
 H    -1.67539500   -2.13393600   -0.26207000
 H    -1.66875100    2.13419800   -0.26567600
 H    -2.96414000    1.29160400    0.62700700
 H    -1.33262600   -1.32655100    1.28966500
 H    -1.33166200    1.32825300    1.28813000
 C    1.90727600    1.27950300   -0.36220600
 C    1.55820900   -0.00028500    0.34901400
 C    1.90865500   -1.27859800   -0.36414600
 O    0.98966600   -0.00140400    1.43225200
 H    1.33188500    1.32786400   -1.28840700
 H    1.67014200    2.13396200    0.26508400
 H    1.67262700   -2.13423900    0.26194700
 H    1.33307900   -1.32632000   -1.29026100
 H    2.96457100    1.29022500   -0.62788900
 H    2.96590300   -1.28769800   -0.63007300

