%chk=C:\Users\User\Desktop\gaussian\pentane\pentane.chk
# hf/3-21g geom=connectivity

Title Card Required

0 1
C         -1.676709350   -0.155545695   0.00000000
C         -3.180974158   -0.156065960   0.00000000
O         -0.993533620   -1.155786393   0.00000000
O         -1.173945330   1.080177302   0.00000000
H         -0.185940107   1.035554940   0.00000000
H         -3.550265591   -1.175547772   0.00000000
H         -3.549007807   0.375205388   -0.87674463
H         -3.549007807   0.375205388   0.87674463
C         3.571345996   -0.473637296   0.00000000
C         2.106241039   -0.190481958   0.00000000
O         1.641605591   0.930419782   0.00000000
H         3.818891652   -1.080075720   0.87420450
H         3.818891652   -1.080075720   -0.87420450
H         4.153834695   0.443265227   0.00000000
H         1.423459707   -1.054169526   0.00000000
