%chk=C:\Users\User\Desktop\gaussian\pentane\pentane.chk
# hf/3-21g geom=connectivity

Title Card Required

0 1
C         1.991115   0.068346   -0.00025
C         3.487865   -0.031277   -0.00002
O         1.385903   1.133815   0.00015
O         1.407942   -1.121443   -0.00002
H         0.410684   -1.022004   0.00032
H         3.924138   0.960947   -0.00125
H         3.812212   -0.585874   0.87835
H         3.812461   -0.588353   -0.87672
C         -3.474141   -0.206034   -0.00002
C         -1.977158   -0.051682   -0.00002
O         -1.246585   -1.052913   0.00007
N         -1.486353   1.197554   -0.00005
H         -3.760829   -0.780853   -0.87794
H         -3.760982   -0.779209   0.87892
H         -4.000507   0.745226   -0.00093
H         -0.474357   1.326961   0.00008
H         -2.102522   1.988490   -0.00013
