%chk=C:\Users\User\Desktop\gaussian\pentane\pentane.chk
# hf/3-21g geom=connectivity

Title Card Required

0 1
C         3.251349   -0.257591   -0.00081
C         1.744298   -0.154757   0.00014
O         1.035297   -1.159135   0.00045
N         1.231666   1.099009   0.00121
H         3.557858   -0.820332   0.87836
H         3.556593   -0.823320   -0.87848
H         3.750304   0.708845   -0.00271
H         0.223291   1.225778   0.00057
H         1.834300   1.900001   -0.00116
C         -3.475582   -0.557831   -0.00018
C         -2.055765   -0.091867   0.00017
O         -1.736307   1.089130   -0.00063
H         -1.270404   -0.863070   0.00104
H         -4.161965   0.283819   -0.00117
H         -3.644245   -1.186921   -0.87552
H         -3.645112   -1.185550   0.87597
