%chk=C:\Users\User\Desktop\gaussian\pentane\pentane.chk
# hf/3-21g geom=connectivity

Title Card Required

0 1
C         -1.466382   0.098761   -0.00009
C         -2.965813   0.074805   -0.00038
O         -0.806159   1.130333   0.00147
O         -0.945048   -1.121115   -0.00135
H         0.052030   -1.072439   -0.00009
H         -3.351228   1.087854   -0.00263
H         -3.317716   -0.466136   -0.87663
H         -3.317703   -0.461789   0.87859
C         2.477962   -0.190823   -0.00070
O         1.736248   -1.176132   0.00201
N         2.060413   1.080183   -0.00059
H         2.730765   1.826849   -0.00338
H         1.058403   1.273004   0.00183
H         3.567638   -0.309773   -0.00347
