%chk=C:\Users\User\Desktop\gaussian\pentane\pentane.chk
# hf/3-21g geom=connectivity

Title Card Required

0 1
C         2.122218   -0.119849   0.20706
C         3.615116   -0.026516   0.07212
O         1.478006   0.393860   1.10472
O         1.580561   -0.836584   -0.78229
H         0.597997   -0.887695   -0.64615
H         4.019063   0.580195   0.87464
H         4.043768   -1.026506   0.10454
H         3.867734   0.406503   -0.89384
C         -1.606152   1.026649   0.39248
C         -1.893276   -0.413863   0.05947
C         -1.114258   1.790292   -0.83340
O         -1.088030   -1.137079   -0.53248
N         -3.100995   -0.892599   0.43868
H         -3.304611   -1.865037   0.28051
H         -3.750395   -0.328317   0.95334
H         -0.865346   2.814375   -0.56185
H         -0.222636   1.318817   -1.24020
H         -1.874484   1.815362   -1.61376
H         -2.490810   1.501867   0.81732
H         -0.819496   1.016773   1.14869
