%chk=C:\Users\User\Desktop\gaussian\pentane\pentane.chk
# hf/3-21g geom=connectivity

Title Card Required

0 1
C         1.958822371   0.063448473   0.00000000
C         3.458528481   -0.051128874   0.00000000
O         1.374415430   1.134060225   0.00000000
O         1.357670707   -1.110782181   0.00000000
H         0.356229651   -1.021533495   0.00000000
H         3.907842909   0.935707469   0.00000000
H         3.782529378   -0.610419823   -0.87663374
H         3.782529378   -0.610419823   0.87663374
C         -1.980336270   -0.026663092   0.00000000
C         -3.483034696   -0.162187009   0.00000000
O         -1.269970702   -1.036578186   0.00000000
N         -1.468541231   1.210838117   0.00000000
H         -2.066717015   2.014776660   0.00000000
H         -0.452642301   1.325455087   0.00000000
H         -4.000747045   0.794247112   0.00000000
H         -3.780948923   -0.733035461   0.87744854
H         -3.780948923   -0.733035461   -0.87744854
