%chk=C:\Users\User\Desktop\gaussian\pentane\pentane.chk
# hf/3-21g geom=connectivity

Title Card Required

0 1
C         -3.685195   -0.863058   -0.00019
C         -2.944734   0.462163   -0.00028
C         -1.450883   0.302881   -0.00005
O         -0.889650   -0.789322   0.00003
O         -0.811129   1.461772   -0.00019
H         -3.427508   -1.450946   0.878080
H         -4.760282   -0.693591   -0.00035
H         -3.427283   -1.451197   -0.87823
H         -3.200713   1.069189   0.86975
H         -3.200499   1.068938   -0.87057
H         0.171607   1.294349   -0.00013
C         2.396752   -0.047148   0.00016
C         3.885019   -0.208653   0.00030
O         1.838188   1.046084   -0.00008
O         1.754602   -1.204509   0.00031
H         0.771622   -1.034655   0.00021
H         4.362031   0.764421   -0.00001
H         4.184526   -0.777581   0.87830
H         4.184649   -0.778247   -0.87721
