%chk=C:\Users\User\Desktop\gaussian\pentane\pentane.chk
# hf/3-21g geom=connectivity

Title Card Required

0 1
C         -2.245545   0.250337   0.00018
O         -1.808929   -1.004369   0.00011
O         -1.552060   1.246418   0.00030
H         -3.338854   0.274722   0.00011
H         -0.817123   -0.992194   0.00016
C         2.935583   0.332552   -0.00027
C         1.458118   0.133523   -0.00016
O         0.930522   -0.971189   -0.00017
H         0.823215   1.030730   0.00019
H         3.457565   -0.619434   -0.00052
H         3.214886   0.920577   -0.87583
H         3.215101   0.920237   0.87544
