%chk=C:\Users\User\Desktop\gaussian\pentane\pentane.chk
# hf/3-21g geom=connectivity

Title Card Required

0 1
C         1.958822371   0.063448473   0.00000000
C         3.458528481   -0.051128874   0.00000000
O         1.374415430   1.134060225   0.00000000
O         1.357670707   -1.110782181   0.00000000
H         0.356229651   -1.021533495   0.00000000
H         3.907842909   0.935707469   0.00000000
H         3.782529378   -0.610419823   -0.87663374
H         3.782529378   -0.610419823   0.87663374
C         -2.061646288   -0.027415327   0.00000000
C         -3.564344714   -0.162939244   0.00000000
O         -1.351280720   -1.037330421   0.00000000
N         -1.549851249   1.210085882   0.00000000
H         -2.148027033   2.014024425   0.00000000
H         -0.533952319   1.324702852   0.00000000
H         -4.082057063   0.793494877   0.00000000
H         -3.862258941   -0.733787696   0.87744854
H         -3.862258941   -0.733787696   -0.87744854
