%chk=C:\Users\User\Desktop\gaussian\pentane\pentane.chk
# hf/3-21g geom=connectivity

Title Card Required

0 1
C         -3.041082   0.536715   -0.00001
C         -1.535097   0.369520   -0.00023
C         -3.881044   -0.732584   0.00041
O         -0.808024   1.371753   -0.00055
N         -1.043214   -0.881049   -0.00006
H         -0.029765   -1.028592   -0.00016
H         -1.660896   -1.670937   0.00023
H         -3.690462   -1.339325   0.88595
H         -4.940667   -0.482939   0.00054
H         -3.690778   -1.339711   -0.88493
H         -3.271503   1.152606   0.87021
H         -3.271799   1.152216   -0.87044
C         4.035177   -0.296288   0.00050
C         2.533290   -0.156774   0.00000
O         1.810468   -1.160543   -0.00039
N         2.039248   1.094325   0.00006
H         4.554451   0.659183   0.00014
H         4.327624   -0.866947   0.87938
H         4.328133   -0.867925   -0.87757
H         1.025739   1.244849   -0.00015
H         2.660664   1.881375   0.00040
