%chk=C:\Users\User\Desktop\gaussian\pentane\pentane.chk
# hf/3-21g geom=connectivity

Title Card Required

0 1
C         2.207775   0.146508   0.00061
O         1.637274   1.229178   -0.00101
N         1.591018   -1.053940   0.00066
H         2.137338   -1.895462   0.00105
H         0.577742   -1.111960   -0.00017
H         3.305008   0.066451   0.00051
C         -1.794492   1.158868   0.00042
C         -2.182196   -0.281089   0.00051
O         -1.398549   -1.216677   -0.00136
H         -3.265376   -0.492720   0.00247
H         -0.714290   1.286919   -0.00040
H         -2.237614   1.639344   -0.87410
H         -2.236258   1.639276   0.87566
