%chk=C:\Users\User\Desktop\gaussian\pentane\pentane.chk
# hf/3-21g geom=connectivity

Title Card Required

0 1
C         -1.93137600   0.06074300   -0.0010020
C         -3.42819600   0.08196000   0.0013510
C         -3.93243594   1.53686086   -0.0232572
C         -5.47239453   1.54639767   -0.0293074
C         -5.97664720   3.00134641   -0.0506007
C         -7.51658567   3.01083275   -0.0605760
C         -8.02084799   4.46579942   -0.0803623
C         -9.56078599   4.47528493   -0.0904108
O         -1.24308200   1.07715800   -0.0010370
O         -1.43596600   -1.16692500   -0.0013790
H         -0.44000500   -1.11891300   -0.0007060
H         -3.79750000   -0.46337100   -0.8648600
H         -3.79192300   -0.42946400   0.8905790
H         -3.57597187   2.05259854   0.8438344
H         -3.56927715   2.02536922   -0.9032431
H         -5.82884087   1.03263736   -0.8975794
H         -5.83556159   1.05587824   0.8495556
H         -5.62243880   3.51435013   0.8190334
H         -5.61125555   3.49265706   -0.9280987
H         -7.87078421   2.49872901   -0.9307445
H         -7.88197985   2.51860921   0.8164091
H         -7.65541204   4.95803749   -0.9573220
H         -7.66669093   4.97788876   0.7898314
H         -9.91115027   5.48620367   -0.1041280
H         -9.91494252   3.96322147   -0.9606200
H         -9.92622167   3.98302020   0.7865340
C         1.93140100   -0.06075400   0.0003480
C         3.42822400   -0.08202800   0.0005300
C         3.93241218   -1.53715019   0.0042316
C         5.47238119   -1.54683580   0.0055043
C         5.97656969   -3.00195883   0.0088093
C         7.51653865   -3.01164430   0.0101497
O         1.24304100   -1.07711300   0.0004000
O         1.43596400   1.16692600   -0.0001190
H         0.43994500   1.11913800   -0.0005260
H         3.79469100   0.44406900   -0.8788450
H         3.79483600   0.44887000   0.8769170
H         3.57328844   -2.04127479   -0.8685733
H         3.57186984   -2.03732201   0.8787242
H         5.83150247   -1.04294893   0.8784475
H         5.83292515   -1.04642521   -0.8688510
H         5.61748610   -3.50583179   -0.8641574
H         5.61598747   -3.50238297   0.8831411
H         7.87562127   -2.50778897   0.8831270
H         7.86685146   -4.02267139   0.0124249
H         7.87712121   -2.51120205   -0.8641715
