%chk=C:\Users\User\Desktop\gaussian\pentane\pentane.chk
# hf/3-21g geom=connectivity

Title Card Required

0 1
C         -4.21278900   -0.98584600   -0.0000500
C         -3.50287600   0.35593000   -0.0002900
C         -2.00243600   0.22953100   -0.0000800
C         -5.73958236   -0.78459507   -0.0003470
C         -6.43825343   -2.15698394   -0.0030899
C         -7.96504695   -1.95573446   -0.0026184
C         -8.66371802   -3.32812330   -0.0053766
C         -10.19051153   -3.12687385   -0.0048958
C         -10.88918260   -4.49926272   -0.0076386
C         -12.41597611   -4.29801326   -0.0071592
O         -1.41629000   -0.84693900   -0.0002600
O         -1.39892500   1.40878200   0.0001700
H         -3.94045100   -1.56764300   0.8780300
H         -3.94015100   -1.56811500   -0.8777300
H         -3.77436100   0.95615800   0.8696700
H         -3.77410700   0.95566200   -0.8706900
H         -0.40242500   1.29356700   0.0000000
H         -6.02764867   -0.23946355   0.8741524
H         -6.02689928   -0.23635351   -0.8731472
H         -6.15052399   -2.70543466   0.8694429
H         -6.15059888   -2.70190492   -0.8778561
H         -8.25277426   -1.40727412   -0.8751459
H         -8.25270295   -1.41082277   0.8721530
H         -8.37598476   -3.87658571   0.8671475
H         -8.37606727   -3.87303257   -0.8801514
H         -10.47824507   -2.57842016   -0.8774254
H         -10.47816131   -2.58195549   0.8698736
H         -10.60144891   -5.04771553   0.8648915
H         -10.60153229   -5.04418161   -0.8824075
H         -12.70370931   -3.74956320   -0.8796912
H         -12.90141640   -5.25155619   -0.0090611
H         -12.70362624   -3.75309127   0.8676078
C         3.46943800   0.43457300   0.0006400
C         1.96504600   0.28357800   -0.0002400
C         4.29047100   -0.84678500   0.0009300
C         5.79406712   -0.51392143   0.0016799
C         6.60909219   -1.82057135   0.0020075
C         8.11268832   -1.48770778   0.0027286
C         8.92771340   -2.79435770   0.0030621
C         10.43130953   -2.46149413   0.0037829
C         11.24633460   -3.76814405   0.0041140
C         12.74993073   -3.43528047   0.0048366
O         1.25009700   1.29759100   -0.0008000
N         1.45211100   -0.95538400   -0.0002800
H         0.43717100   -1.06249000   -0.0005500
H         2.05047800   -1.75988400   0.0004700
H         4.09163200   -1.45065600   0.8865900
H         4.09244900   -1.45050800   -0.8850100
H         3.70739000   1.04780600   -0.8693600
H         3.70641000   1.04754300   0.8711100
H         6.03285249   0.05560358   0.8754778
H         6.03370403   0.05569598   -0.8718246
H         6.37029112   -2.39010514   -0.8717803
H         6.36947026   -2.39017968   0.8755220
H         8.35148767   -0.91817011   0.8765144
H         8.35231128   -0.91810303   -0.8707880
H         8.68891297   -3.36389504   -0.8707236
H         8.68809082   -3.36396248   0.8765788
H         10.67010930   -1.89195776   0.8775695
H         10.67093206   -1.89188807   -0.8697329
H         11.00753475   -4.33767946   -0.8696730
H         11.00671145   -4.33775076   0.8776293
H         12.98872979   -2.86574540   0.8786242
H         13.31621439   -4.34314763   0.0050658
H         12.98955398   -2.86567313   -0.8686781
