%chk=C:\Users\User\Desktop\gaussian\pentane\pentane.chk
# hf/3-21g geom=connectivity

Title Card Required

0 1
C         -4.23568161   1.06689350   0.4052035
C         -3.72604984   -0.23439085   -0.2417388
C         -2.19105488   -0.18430511   -0.3552372
C         -5.77067657   1.01680775   0.5187019
C         -6.28030834   2.31809210   1.1656443
O         -1.60646747   0.92079914   -0.4986692
O         -1.49850067   -1.28476091   -0.3028218
H         -3.94983619   1.90177477   -0.1999127
H         -3.80909936   1.17095119   1.3809594
H         -4.15263209   -0.33844855   -1.2174947
H         -4.01189526   -1.06927212   0.3633773
H         -0.54162066   -1.25353859   -0.3735736
H         -6.05652200   0.18192648   1.1238181
H         -6.19725882   0.91275006   -0.4570539
H         -7.34683082   2.28329227   1.2445036
H         -5.85372610   2.42214980   2.1414002
H         -5.99446292   3.15297338   0.5605281
C         2.77235785   -0.05276533   1.2034803
C         1.81822970   -0.98736201   0.4368197
C         3.95850175   0.32564580   0.2971318
C         3.43500990   1.04524943   -0.9597400
C         4.62115380   1.42366056   -1.8660885
C         4.09766195   2.14326419   -3.1229604
O         1.33213013   -0.31915864   -0.7302755
H         2.24742725   0.83365961   1.4926147
H         3.13608271   -0.55274967   2.0767615
H         2.34316031   -1.87378696   0.1476854
H         0.99409076   -1.25028403   1.0665554
H         0.86116435   0.47613851   -0.4708652
H         4.62143495   0.97500842   0.8298116
H         4.48343236   -0.56077915   0.0079975
H         2.91007930   1.93167437   -0.6706056
H         2.77207671   0.39588680   -1.4924198
H         5.28408700   2.07302319   -1.3334087
H         5.14608441   0.53723561   -2.1552229
H         4.92180090   2.40618621   -3.7526960
H         3.43472876   1.49390156   -3.6556402
H         3.57273135   3.02968913   -2.8338260
