%chk=C:\Users\User\Desktop\gaussian\pentane\pentane.chk
# hf/3-21g geom=connectivity

Title Card Required

0 1
C         9.84375947   5.00701389   -2.0528244
C         8.57222743   4.29751994   -2.5542469
C         7.89822170   3.56207865   -1.3810281
C         6.62679562   2.85242330   -1.8824910
C         5.95269194   2.11713121   -0.7092349
C         4.68193994   1.40644993   -1.2109535
C         4.00666900   0.67293400   -0.0372570
C         2.73739600   -0.05505400   -0.4941150
C         2.06130700   -0.78872300   0.6626120
C         0.78583400   -1.50353700   0.2951140
O         0.25742200   -1.46801800   -0.8134960
H         0.31003500   -2.08999700   1.1183510
H         2.73744800   -1.53807100   1.1181980
H         2.97526900   -0.77628000   -1.2936270
H         2.02442700   0.66512600   -0.9260070
H         1.79680600   -0.08785600   1.4780900
H         3.77138100   1.41973300   0.7386210
H         4.73992800   -0.03443100   0.3845300
H         4.00535886   2.12951872   -1.6163046
H         4.94477750   0.69924651   -1.9696891
H         5.69003375   2.82326980   0.0505537
H         6.62990411   1.39389264   -0.3052428
H         5.94989274   3.57625971   -2.2859304
H         6.88867561   2.14639919   -2.6426547
H         7.63635659   4.26801299   -0.6207759
H         8.57517723   2.83822785   -0.9777029
H         7.89532036   5.02146451   -2.9574852
H         8.83396993   3.59160345   -3.3145579
H         10.31205630   5.51801124   -2.8679807
H         9.58201802   5.71292243   -1.2925056
H         10.52067080   4.28306786   -1.6495959
C         -9.84404414   -5.01419156   2.0317196
C         -8.57328417   -4.30544252   2.5361439
C         -7.89825311   -3.56708740   1.3653473
C         -6.62759976   -2.85817624   1.8698124
C         -5.95246691   -2.11997588   0.6989769
C         -4.68249272   -1.41003281   1.2037009
C         -4.00617000   -0.67364000   0.0324140
C         -2.73760900   0.05368700   0.4923090
C         -2.06054900   0.79012300   -0.6620890
C         -0.78605700   1.50511100   -0.2916610
O         -0.25845300   1.46708100   0.8172640
H         -0.31010100   2.09420600   -1.1129240
H         -1.79453100   0.09098200   -1.4785740
H         -2.02489000   -0.66728400   0.9232510
H         -2.97656500   0.77307600   1.2931520
H         -2.73666700   1.53980900   -1.1171540
H         -4.73918300   0.03446100   -0.3885670
H         -3.76977900   -1.41861500   -0.7448800
H         -4.00612543   -2.13380558   1.6081515
H         -4.94638771   -0.70463720   1.9637513
H         -6.62947800   -1.39603324   0.2959098
H         -5.68875427   -2.82428504   -0.0621434
H         -5.95089870   -3.58271917   2.2723211
H         -6.89052989   -2.15398336   2.6313110
H         -8.57500846   -2.84252949   0.9629569
H         -7.63533883   -4.27118731   0.6037573
H         -7.89657690   -5.03009417   2.9384464
H         -8.83607572   -3.60136107   3.2977934
H         -10.31305218   -5.52721526   2.8451925
H         -10.52075610   -4.28953788   1.6294287
H         -9.58125438   -5.71826388   1.2700611
