%chk=C:\Users\User\Desktop\gaussian\pentane\pentane.chk
# hf/3-21g geom=connectivity

Title Card Required

0 1
C         6.31730614   7.47630387   1.2073320
C         6.04260550   5.98385746   1.4695214
C         4.87340404   5.51385401   0.5842730
C         4.60658525   4.01845351   0.8376207
C         3.42287592   3.55384861   -0.0310417
C         3.20245377   2.04269285   0.1675089
C         1.94165600   1.60268200   -0.5995500
C         2.13472400   0.20560400   -1.1815900
C         2.46514300   -0.87246800   -0.1501800
C         1.30426800   -1.30434500   0.7317400
O         0.84485100   -0.29548200   1.6337000
H         3.29497700   -0.53930700   0.4834000
H         2.81782500   -1.76855600   -0.6694200
H         0.43910300   -1.54753100   0.1136400
H         1.57815600   -2.20684700   1.2870900
H         1.57570200   -0.07926700   2.2230500
H         2.94198100   0.23786500   -1.9168700
H         1.23622000   -0.09582200   -1.7282200
H         1.76549900   2.33049900   -1.3919000
H         1.10201300   1.63346700   0.0904300
H         3.07683809   1.83444821   1.2095045
H         4.05092751   1.50670030   -0.2035763
H         3.63717138   3.75077827   -1.0606999
H         2.53928341   4.08406748   0.2571114
H         4.37157087   3.86808793   1.8706059
H         5.47865963   3.45261679   0.5842138
H         5.12368333   5.66205031   -0.4454347
H         3.99614447   6.07810849   0.8228784
H         5.78898553   5.84345205   2.4995035
H         6.91772897   5.41386401   1.2367847
H         5.44155160   8.04608583   1.4382053
H         7.12839391   7.80335115   1.8238356
H         6.57283629   7.61643370   0.1777845
C         -2.47734100   -1.61903300   -0.8991600
C         -2.40099800   -0.52506900   0.1588100
C         -1.91995300   0.80281800   -0.4119800
C         -1.84059100   1.89451600   0.6471700
C         -1.34229339   3.22576083   0.0546443
C         -1.28306217   4.29150672   1.1647241
C         -0.78313523   5.62229637   0.5725485
C         -0.72449035   6.68820629   1.6825020
C         -0.22421841   8.01889942   1.0904009
C         -0.16570172   9.08484522   2.2003267
H         -1.15611300   1.59758000   1.4421000
H         -2.82091400   2.07198800   1.0923000
H         -2.58960000   1.11154200   -1.2201800
H         -0.93436100   0.65907300   -0.8640800
H         -3.38612600   -0.38375500   0.6122800
H         -1.72776500   -0.82494700   0.9658900
H         -1.50281700   -1.77884500   -1.3645900
H         -2.80592500   -2.56868500   -0.4769500
H         -3.17578400   -1.34441600   -1.6910200
H         -2.01390845   3.54783873   -0.7135347
H         -0.36561283   3.08815256   -0.3601556
H         -0.61235658   3.96888736   1.9334704
H         -2.25996550   4.42997199   1.5787136
H         -1.45360960   5.94469740   -0.1964908
H         0.19394410   5.48393473   0.1589400
H         -0.05420893   6.36568989   2.4516613
H         -1.70161660   6.82674964   2.0959389
H         -0.89444944   8.34136730   0.3211773
H         0.75294634   7.88037895   0.6770474
H         0.50453844   8.76238190   2.9695442
H         0.18187817   10.00942097   1.7889292
H         -1.14286413   9.22335714   2.6136886
