%chk=C:\Users\User\Desktop\gaussian\pentane\pentane.chk
# hf/3-21g geom=connectivity

Title Card Required

0 1
C         -9.77544178   8.30484070   -2.2392045
C         -8.76857408   7.28837497   -2.8089543
C         -8.13668170   6.48924922   -1.6540907
C         -7.12983679   5.47276218   -2.2238428
C         -6.49793504   4.67364518   -1.0689782
C         -5.49117844   3.65707561   -1.6387390
C         -4.85919949   2.85803076   -0.4838668
C         -3.85295730   1.84098059   -1.0536787
C         -3.22020200   1.04266100   0.1012700
C         -2.21835900   0.01963800   -0.4178600
C         -1.59411600   -0.77699900   0.7139000
C         -0.56542200   -1.77809300   0.2752400
O         -0.23123600   -1.96038100   -0.8802100
H         -0.10008200   -2.36875300   1.0868700
H         -1.10965700   -0.11871700   1.4449200
H         -1.42844300   0.51716800   -0.9816800
H         -2.70156100   -0.66782200   -1.1135600
H         -2.35472100   -1.32350800   1.2837900
H         -4.02587300   0.55690900   0.6534000
H         -2.73780200   1.75359700   0.7736100
H         -4.35990837   1.17002959   -1.7152869
H         -3.08650538   2.35995622   -1.5904428
H         -5.62605194   2.33900584   0.0522772
H         -4.35238676   3.52852663   0.1783084
H         -5.99757938   2.98652692   -2.3011759
H         -4.72437981   4.17648677   -2.1745860
H         -7.26477324   4.15422892   -0.5331928
H         -5.99154763   5.34414833   -0.4064849
H         -7.63615326   4.80224976   -2.8863809
H         -6.36300764   5.99224455   -2.7595769
H         -8.90351541   5.96976602   -1.1183638
H         -7.63036662   7.15975589   -0.9915457
H         -9.27487064   6.61786572   -3.4715108
H         -8.00174251   7.80787504   -3.3446679
H         -10.21448316   8.86007811   -3.0416097
H         -10.54227363   7.78534032   -1.7034917
H         -9.26914512   8.97534908   -1.5766472
C         3.07201800   -0.84875800   0.0704700
C         2.24722000   0.32566000   0.5822300
C         1.61051100   1.12561700   -0.5473700
C         0.78344200   2.29993700   -0.0386200
C         0.13461720   3.08424425   -1.1942533
C         -0.68266142   4.25782734   -0.6229755
C         -1.33123002   5.04232131   -1.7786260
C         -2.14855775   6.21586862   -1.2073449
C         -2.79706313   7.00040867   -2.3629995
C         -3.61439405   8.17395365   -1.7917182
C         -4.26288673   8.95850295   -2.9473737
C         -5.08021620   10.13204899   -2.3760925
H         3.88071200   -0.49702200   -0.5714800
H         2.45153700   -1.52778100   -0.5153100
H         3.51773300   -1.41418300   0.8888400
H         1.46149700   -0.03723000   1.2528200
H         2.87440500   0.98961400   1.1840700
H         0.98826700   0.45783900   -1.1491300
H         2.39939200   1.49181600   -1.2100500
H         1.40384600   2.99354100   0.5308000
H         -0.01633400   1.95719000   0.6205800
H         -0.51184485   2.43515079   -1.7471227
H         0.89812208   3.46286659   -1.8412506
H         -1.44630456   3.87919160   0.0238506
H         -0.03623860   4.90680391   -0.0699231
H         -1.97762035   4.39333390   -2.3317036
H         -0.56758473   5.42099223   -2.4254290
H         -2.91223696   5.83719421   -0.5605839
H         -1.50217690   6.86482698   -0.6542221
H         -3.44344162   6.35144934   -2.9161240
H         -2.03338354   7.37908513   -3.0097589
H         -4.37808026   7.79527628   -1.1449672
H         -2.96801727   8.82290691   -1.2385847
H         -4.90926421   8.30954972   -3.5005065
H         -3.49920033   9.33717901   -3.5941252
H         -5.53078893   10.67716037   -3.1790482
H         -5.84390496   9.75337243   -1.7293441
H         -4.43383921   10.78099975   -1.8229563
