%chk=C:\Users\User\Desktop\gaussian\pentane\pentane.chk
# hf/3-21g geom=connectivity

Title Card Required

0 1
C         2.33034317   10.92097050   -0.7442317
C         2.66208462   9.76921392   -1.7111880
C         2.13013051   8.44453451   -1.1333910
C         2.46121761   7.29288650   -2.1007008
C         1.93223516   5.96771655   -1.5213027
C         2.25950196   4.81669832   -2.4906599
C         1.74680836   3.48891695   -1.9026617
C         2.04478239   2.34260636   -2.8869297
C         1.65993727   0.99851810   -2.2412355
C         1.92645452   -0.15805519   -3.1999740
C         1.64705118   -1.54316877   -2.6180662
C         0.17653035   -1.89642065   -2.4608626
O         -0.51187859   -1.12114949   -1.4772732
H         2.14871577   -1.64782552   -1.6493434
H         2.08592406   -2.30176573   -3.2729630
H         -0.35311118   -1.70460820   -3.3948783
H         0.07482363   -2.96272421   -2.2359390
H         -0.09259372   -1.29348458   -0.6271400
H         2.97163550   -0.12141425   -3.5155616
H         1.32916790   -0.03224746   -4.1079347
H         2.25549708   0.88443364   -1.3333505
H         0.61287981   1.04182792   -1.9517266
H         3.08810697   2.33848655   -3.1243257
H         1.47588396   2.48414273   -3.7820398
H         0.69118181   3.55458605   -1.7406736
H         2.23917896   3.29716066   -0.9722313
H         3.31865068   4.75910964   -2.6313280
H         1.78396189   4.99710257   -3.4320504
H         0.87228441   6.03348060   -1.3906142
H         2.39725961   5.78095062   -0.5759082
H         1.99843795   7.47814522   -3.0474923
H         3.52157796   7.22819133   -2.2285698
H         1.06964368   8.51073000   -1.0073520
H         2.59097196   8.25811556   -0.1858821
H         2.20162900   9.95537357   -2.6589354
H         3.72264029   9.70320154   -1.8367429
H         2.70051712   11.84127006   -1.1453800
H         1.26975366   10.98739691   -0.6191820
H         2.79026315   10.73449062   0.2037127
C         -2.47734100   -1.61903300   -0.8991600
C         -2.40099800   -0.52506900   0.1588100
C         -1.91995300   0.80281800   -0.4119800
C         -1.84059100   1.89451600   0.6471700
C         -1.34229339   3.22576083   0.0546443
C         -1.28306217   4.29150672   1.1647241
C         -0.78313523   5.62229637   0.5725485
C         -0.72449035   6.68820629   1.6825020
C         -0.22421841   8.01889942   1.0904009
C         -0.16570172   9.08484522   2.2003267
C         0.33455345   10.41554304   1.6082219
C         0.39306297   11.48149084   2.7181462
H         -1.15611300   1.59758000   1.4421000
H         -2.82091400   2.07198800   1.0923000
H         -2.58960000   1.11154200   -1.2201800
H         -0.93436100   0.65907300   -0.8640800
H         -3.38612600   -0.38375500   0.6122800
H         -1.72776500   -0.82494700   0.9658900
H         -1.50281700   -1.77884500   -1.3645900
H         -2.80592500   -2.56868500   -0.4769500
H         -3.17578400   -1.34441600   -1.6910200
H         -2.01390845   3.54783873   -0.7135347
H         -0.36561283   3.08815256   -0.3601556
H         -0.61235658   3.96888736   1.9334704
H         -2.25996550   4.42997199   1.5787136
H         -1.45360960   5.94469740   -0.1964908
H         0.19394410   5.48393473   0.1589400
H         -0.05420893   6.36568989   2.4516613
H         -1.70161660   6.82674964   2.0959389
H         -0.89444944   8.34136730   0.3211773
H         0.75294634   7.88037895   0.6770474
H         0.50453844   8.76238190   2.9695442
H         -1.14286413   9.22335714   2.6136886
H         -0.33568411   10.73800270   0.8390006
H         1.31171807   10.27703265   1.1948647
H         1.06330551   11.15903328   3.4873640
H         0.74063638   12.40606841   2.3067473
H         -0.58410032   11.61999659   3.1315081
