%chk=C:\Users\User\Desktop\gaussian\pentane\pentane.chk
# hf/3-21g geom=connectivity

Title Card Required

0 1
C         -2.02934300   -2.14629200   -0.5573000
C         -2.44059400   -0.87674500   -0.6264300
C         -2.05995900   0.19446100   0.3439800
C         -1.32605500   1.35401400   -0.3316200
C         -0.95527300   2.45062000   0.6583500
C         -0.20118832   3.60352459   -0.0299575
C         0.13670105   4.68863802   1.0092534
C         0.88962756   5.84214726   0.3206911
C         1.22625155   6.92792042   1.3596237
H         -1.38847400   -2.48080500   0.2492800
H         -2.32568100   -2.87614800   -1.2978300
H         -3.08202300   -0.57794400   -1.4512000
H         -2.95897500   0.58876600   0.8290900
H         -1.43200000   -0.23118700   1.1312900
H         -0.42757000   0.97000800   -0.8199000
H         -1.95844500   1.76571100   -1.1224900
H         -1.84780300   2.86551900   1.1287200
H         -0.31582400   2.05737500   1.4500600
H         0.70336303   3.23000889   -0.4625923
H         -0.81656527   4.02414159   -0.7976115
H         -0.76780194   5.06150610   1.4425475
H         0.75283401   4.26824785   1.7764250
H         1.79462168   5.46947142   -0.1117419
H         0.27388232   6.26188614   -0.4471481
H         1.74901178   7.72958101   0.8811239
H         0.32128003   7.30029260   1.7923655
H         1.84235088   6.50828815   2.1272371
C         1.45417100   -1.06310700   1.7909600
C         1.68576000   -0.97614600   0.2877700
C         2.38302200   0.31522200   -0.1213600
C         2.59868600   0.40617900   -1.6267800
C         3.29711015   1.71978544   -2.0245762
C         3.49107137   1.75595147   -3.5518846
C         4.18944180   3.06958460   -3.9496870
C         4.38348991   3.10570747   -5.4769854
C         5.08185748   4.41934202   -5.8747881
H         1.64649900   0.35737000   -2.1574100
H         3.21501100   -0.42199700   -1.9791300
H         3.34395300   0.38460200   0.3960600
H         1.78765200   1.16710600   0.2196000
H         2.28760900   -1.82734000   -0.0430300
H         0.73136200   -1.05172900   -0.2408100
H         0.85127800   -0.22284100   2.1394600
H         0.93833500   -1.98281400   2.0682100
H         2.40129900   -1.03514200   2.3316800
H         2.69407525   2.55021546   -1.7218636
H         4.25064834   1.77692727   -1.5424976
H         4.09414040   0.92554415   -3.8545914
H         2.53753610   1.69876800   -4.0339640
H         3.58634065   3.89999012   -3.6470392
H         5.14294855   3.12679945   -3.4675549
H         4.98659253   2.27530263   -5.7796321
H         3.42998341   3.04849054   -5.9591177
H         5.21669842   4.44443277   -6.9359613
H         4.47874644   5.24974598   -5.5721558
H         6.03535682   4.47656702   -5.3926426
