%chk=C:\Users\User\Desktop\gaussian\pentane\pentane.chk
# hf/3-21g geom=connectivity

Title Card Required

0 1
C         3.18126700   1.90108100   -0.3385080
C         1.89402500   1.91703800   0.4764970
C         0.64727900   1.91554700   -0.3992340
C         -0.64798400   1.91755000   0.4019460
C         -1.89463600   1.91169700   -0.4739030
C         -3.18200100   1.90132500   0.3409720
C         -4.42812564   1.89442590   -0.5638626
C         -5.69656197   1.88546189   0.3094007
C         -6.94268904   1.87895117   -0.5954334
H         -0.66626100   1.04349200   1.0613710
H         -0.66944100   2.79652200   1.0547650
H         -1.86579400   1.03802500   -1.1309490
H         -1.87727100   2.78878200   -1.1266700
H         -3.23869800   2.78079200   0.9838860
H         -3.22867600   1.01859900   0.9803130
H         0.66639300   1.03714600   -1.0528510
H         0.66776000   2.79017200   -1.0578550
H         1.86568800   1.04834400   1.1401750
H         1.87624600   2.79905500   1.1225750
H         4.06336600   1.90184700   0.3017540
H         3.23724800   2.77548800   -0.9883620
H         3.22837000   1.01337300   -0.9708510
H         -4.41485080   1.02150992   -1.1825237
H         -4.42589783   2.76877663   -1.1806331
H         -5.69892108   1.01097567   0.9259786
H         -5.70970307   2.75824358   0.9282540
H         -6.92942910   1.00628762   -1.2144508
H         -7.82400373   1.87248867   0.0113141
H         -6.94044949   2.75355359   -1.2118469
C         3.18109299   -1.88757609   0.3447546
C         1.89542377   -1.90708195   -0.4726425
C         0.64710244   -1.91472009   0.4008049
C         -0.64663962   -1.92064674   -0.4027829
C         -1.89495397   -1.92519787   0.4707263
C         -3.18081534   -1.91716242   -0.3465742
C         -4.42869050   -1.92095995   0.5558630
C         -5.69548003   -1.91397648   -0.3198055
C         -6.94335568   -1.91815519   0.5826294
H         0.66063204   -1.03837944   1.0573425
H         0.67081644   -2.79136130   1.0566340
H         1.86403721   -1.03631893   -1.1334483
H         1.88316863   -2.78698074   -1.1217200
H         4.06434102   -1.88178614   -0.2938974
H         3.24021660   -2.76393077   0.9916977
H         3.22267473   -1.00182685   0.9802437
H         -0.66843144   -1.04414041   -1.0588576
H         -0.66208289   -2.79716653   -1.0590162
H         -1.87162162   -1.05458904   1.1320610
H         -1.87444835   -2.80534714   1.1192643
H         -3.23188354   -2.79369280   -0.9939667
H         -3.23063500   -1.03149931   -0.9815847
H         -4.42095599   -1.05107074   1.1788662
H         -4.42328286   -2.79833989   1.1682968
H         -5.70308292   -2.78373227   -0.9429966
H         -5.70101822   -1.03646513   -0.9320499
H         -6.93576004   -1.04839115   1.2058090
H         -7.82352764   -1.91331938   -0.0257898
H         -6.93780947   -2.79565846   1.1948852
