%chk=C:\Users\User\Desktop\gaussian\pentane\pentane.chk
# hf/3-21g geom=connectivity

Title Card Required

0 1
C         3.56008100   0.05653800   0.0013290
C         2.05181600   0.06350500   -0.0001790
C         4.16056096   -1.36156551   -0.0011747
C         5.69772379   -1.26812874   -0.0012383
C         6.29820382   -2.68623310   -0.0031792
C         7.83536664   -2.59279624   -0.0033147
C         8.43584667   -4.01090068   -0.0051895
C         9.97300949   -3.91746383   -0.0053351
C         10.57348951   -5.33556828   -0.0072058
C         12.11065232   -5.24213140   -0.0073848
O         1.42945900   1.13226000   -0.0008190
N         1.43889900   -1.13417100   -0.0004780
H         3.90772900   0.59861200   -0.8755300
H         3.90587100   0.59455200   0.8814500
H         0.41627800   -1.18579400   -0.0012660
H         1.98081500   -1.97792100   -0.0002100
H         3.83502787   -1.88518928   -0.8756725
H         3.83528172   -1.88816735   0.8716275
H         6.02302326   -0.74186444   -0.8742367
H         6.02323594   -0.74416644   0.8730644
H         5.97294332   -3.21248002   0.8698441
H         5.97265205   -3.21021247   -0.8774570
H         8.16062865   -2.06658840   -0.8763610
H         8.16091623   -2.06877735   0.8709402
H         8.11058937   -4.53710561   0.8678602
H         8.11029172   -4.53492210   -0.8794410
H         10.29826607   -3.39126087   -0.8783865
H         10.29856453   -3.39344004   0.8689147
H         10.24825054   -5.86176288   0.8658570
H         10.24791623   -5.85960006   -0.8814442
H         12.52786896   -6.22743775   -0.0086756
H         12.43589089   -4.71594399   -0.8804522
H         12.43622539   -4.71809203   0.8668490
C         -3.56005100   -0.05672700   0.0014750
C         -2.05178100   -0.06349500   -0.0001340
C         -4.16073210   1.36129165   0.0037791
C         -5.69787976   1.26763405   0.0060849
C         -6.29855614   2.68564696   0.0113076
C         -7.83570578   2.59200151   0.0100835
O         -1.42931100   -1.13218400   -0.0009870
N         -1.43905900   1.13428300   -0.0007690
H         -3.90760500   -0.59573800   -0.8773320
H         -3.90578500   -0.59791100   0.8796490
H         -0.41647100   1.18622100   -0.0016260
H         -1.98116800   1.97791000   0.0004330
H         -3.83403893   1.88560888   0.8774283
H         -3.83676324   1.88729454   -0.8698713
H         -6.02468049   0.74507125   -0.8685747
H         -6.02174370   0.73988032   0.8787177
H         -5.97273536   3.21422479   -0.8600970
H         -5.97371022   3.20737680   0.8871918
H         -8.16149757   2.06296523   0.8812209
H         -8.25305914   3.57724203   0.0142433
H         -8.16057976   2.07073193   -0.8660642
