%chk=C:\Users\User\Desktop\gaussian\pentane\pentane.chk
# hf/3-21g geom=connectivity

Title Card Required

0 1
C         -2.889737   0.112893   -0.00008
C         -4.386921   0.013869   -0.00003
O         -2.264568   1.158255   -0.00029
O         -2.312261   -1.094757   0.00010
H         -1.331169   -0.966834   0.00011
H         -4.820172   1.007501   -0.00078
H         -4.713678   -0.541146   -0.87730
H         -4.713631   -0.539739   0.87814
C         2.286278   0.732410   -0.00002
C         0.833385   0.380343   -0.00001
C         3.230194   -0.456764   0.00009
C         4.688078   -0.015633   0.00007
O         0.421498   -0.772799   0.00012
H         0.110619   1.209243   -0.00007
H         2.455903   1.379316   0.86855
H         3.021818   -1.077787   0.87217
H         3.021837   -1.077956   -0.87185
H         2.455916   1.379142   -0.86873
H         4.913928   0.586317   -0.88086
H         4.913909   0.586486   0.88090
H         5.359701   -0.872830   0.00016
