%chk=C:\Users\User\Desktop\gaussian\pentane\pentane.chk
# hf/3-21g geom=connectivity

Title Card Required

0 1
C         0.934680   -1.914568   0.20922
C         1.437889   -0.711798   0.50255
C         2.127425   0.184461   -0.47543
C         3.577688   0.451977   -0.07077
H         0.459346   -2.527266   0.96275
H         0.989460   -2.309806   -0.79784
H         1.369834   -0.350362   1.52558
H         2.090633   -0.267554   -1.46885
H         1.592408   1.136344   -0.53488
H         3.624251   0.902805   0.92099
H         4.145201   -0.477704   -0.04289
H         4.062724   1.130422   -0.77189
C         -2.815629   -1.286055   -0.34519
C         -2.325634   -0.067039   0.42490
C         -1.633671   0.947468   -0.47603
C         -1.089278   2.138035   0.30257
H         -1.977743   -1.795925   -0.82304
H         -3.518716   -0.994607   -1.12689
H         -3.317031   -2.001185   0.30685
H         -3.164895   0.416184   0.93312
H         -1.625946   -0.381968   1.20349
H         -2.338877   1.292594   -1.23740
H         -0.818870   0.448136   -1.00706
H         -0.362055   1.809227   1.04711
H         -0.599170   2.860131   -0.35092
H         -1.891377   2.655642   0.83085
