%chk=C:\Users\User\Desktop\gaussian\pentane\pentane.chk
# hf/3-21g geom=connectivity

Title Card Required

0 1
C         -1.365540   -1.809424   -0.21347
C         -1.787913   -0.744079   0.78925
C         -2.663839   0.330127   0.16593
O         -2.003462   1.042884   -0.87924
H         -0.905725   -0.268961   1.22802
H         -2.339087   -1.198845   1.61659
H         -3.536258   -0.124615   -0.30414
H         -3.021045   1.022275   0.93431
H         -1.270938   1.527098   -0.48231
H         -0.696368   -2.539511   0.24098
H         -2.237240   -2.342690   -0.59521
H         -0.855041   -1.357491   -1.06231
C         1.186082   2.066621   0.37243
C         1.640856   0.843712   -0.41568
C         2.225352   -0.243386   0.47728
C         2.686332   -1.459516   -0.31611
H         2.023706   2.520485   0.90339
H         0.440654   1.794777   1.12354
H         0.756447   2.831326   -0.27667
H         0.801981   0.429565   -0.98152
H         2.390470   1.142917   -1.15305
H         1.474843   -0.546225   1.21313
H         3.063841   0.170243   1.04450
H         3.456021   -1.180964   -1.03699
H         3.099136   -2.230686   0.33374
H         1.854318   -1.896100   -0.86981
