%chk=C:\Users\User\Desktop\gaussian\pentane\pentane.chk
# hf/3-21g geom=connectivity

Title Card Required

0 1
C         3.103552   0.557627   0.18294
C         1.760161   -0.132491   0.27675
C         3.875454   0.129295   -1.05646
O         1.109612   -0.421154   -0.73154
N         1.312581   -0.392062   1.52614
H         0.377871   -0.764384   1.64440
H         1.849989   -0.120265   2.32795
H         3.278217   0.303203   -1.94795
H         4.805940   0.688081   -1.139632
H         4.114044   -0.932425   -1.01520
H         2.899842   1.630854   0.14650
H         3.680708   0.374077   1.09046
C         -1.690631   1.713462   0.51678
C         -2.931048   1.204631   -0.21200
C         -2.733648   -0.106966   -0.96941
C         -2.477788   -1.332614   -0.10436
O         -1.188349   -1.348275   0.50086
H         -1.908326   -0.003192   -1.68172
H         -3.630666   -0.310058   -1.56170
H         -3.199402   -1.372638   0.71383
H         -2.611670   -2.236202   -0.70764
H         -0.522118   -1.129476   -0.18045
H         -3.258385   1.964251   -0.92583
H         -3.751475   1.080924   0.50088
H         -0.841725   1.773822   -0.16659
H         -1.866705   2.707267   0.92958
H         -1.410613   1.048366   1.33015
