%chk=C:\Users\User\Desktop\gaussian\pentane\pentane.chk
# hf/3-21g geom=connectivity

Title Card Required

0 1
C         3.439209   0.101712   -0.00013
O         2.867856   -1.097744   0.00001
O         2.859074   1.167713   -0.00018
H         4.528698   0.006128   -0.00020
H         1.882821   -0.977133   0.00007
C         -1.710604   0.732632   -0.00002
C         -0.258780   0.379613   -0.00002
C         -2.655833   -0.455529   0.00011
C         -4.113018   -0.012157   0.00010
O         0.152483   -0.774105   0.00012
H         0.464104   1.208550   -0.00016
H         -1.879182   1.379826   -0.86862
H         -2.448416   -1.076890   -0.87193
H         -2.448376   -1.076714   0.87227
H         -1.879143   1.380001   0.86844
H         -4.337980   0.590182   0.88096
H         -4.338017   0.590014   -0.88086
H         -4.785652   -0.868492   0.00019
