%chk=C:\Users\User\Desktop\gaussian\pentane\pentane.chk
# hf/3-21g geom=connectivity

Title Card Required

0 1
C         -3.343165   -0.850932   -0.19505
C         -1.992661   -0.180491   -0.10963
O         -1.160660   -0.290689   -1.00687
N         -1.755206   0.538171   1.01664
H         -3.923806   -0.766770   0.72084
H         -3.899162   -0.399154   -1.01466
H         -3.192877   -1.900682   -0.43527
H         -0.899368   1.074657   1.08028
H         -2.476452   0.677534   1.69902
C         2.458912   -1.995891   0.31229
C         1.844391   -0.623941   0.55879
C         1.905208   0.241477   -0.68582
C         1.311830   1.604138   -0.53380
O         0.769843   2.024764   0.47505
H         1.388768   2.256826   -1.42128
H         2.936558   0.375481   -1.03305
H         2.358538   -0.118998   1.37873
H         0.802058   -0.732658   0.85857
H         1.363892   -0.229009   -1.51352
H         1.927502   -2.516763   -0.48484
H         3.505375   -1.909983   0.01609
H         2.414859   -2.616444   1.20660
