%chk=C:\Users\User\Desktop\gaussian\pentane\pentane.chk
# hf/3-21g geom=connectivity

Title Card Required

0 1
C         -4.225338   1.085743   0.45521
C         -3.653480   -0.186792   -0.14332
C         -2.150743   -0.188465   -0.18629
O         -1.449925   0.732868   0.20769
O         -1.661398   -1.318102   -0.70825
H         -3.916953   1.956102   -0.11994
H         -5.312952   1.043595   0.46453
H         -3.875223   1.224829   1.47584
H         -4.003236   -0.345656   -1.16483
H         -3.960674   -1.071559   0.41682
H         -0.672249   -1.241866   -0.70416
C         2.747592   -0.027136   1.125755
C         1.739895   -1.046674   0.62304
C         3.889441   0.291887   0.16245
C         3.477977   1.091094   -1.07030
O         0.923971   -0.560258   -0.44986
H         2.216899   0.891885   1.39586
H         3.165446   -0.425653   2.05476
H         2.254186   -1.922679   0.22674
H         1.101739   -1.374782   1.44947
H         0.415268   0.201639   -0.11595
H         4.650841   0.851881   0.70994
H         4.361659   -0.645406   -0.14541
H         2.985241   2.019558   -0.77694
H         4.351125   1.352216   -1.66815
H         2.785635   0.531889   -1.69441
