%chk=C:\Users\User\Desktop\gaussian\pentane\pentane.chk
# hf/3-21g geom=connectivity

Title Card Required

0 1
C         -2.029343   -2.146292   -0.55730
C         -2.440594   -0.876745   -0.62643
C         -2.059959   0.194461   0.34398
C         -1.326055   1.354014   -0.33162
C         -0.955273   2.450620   0.65835
H         -1.388474   -2.480805   0.24928
H         -2.325681   -2.876148   -1.29783
H         -3.082023   -0.577944   -1.45120
H         -2.958975   0.588766   0.82909
H         -1.432000   -0.231187   1.13129
H         -0.427570   0.970008   -0.81990
H         -1.958445   1.765711   -1.12249
H         -1.847803   2.865519   1.12872
H         -0.315824   2.057375   1.45006
H         -0.421624   3.266505   0.17125
C         2.598686   0.406179   -1.62678
C         2.383022   0.315222   -0.12136
C         1.685760   -0.976146   0.28777
C         1.454171   -1.063107   1.79096
H         1.646499   0.357370   -2.15741
H         3.215011   -0.421997   -1.97913
H         3.092925   1.335751   -1.90828
H         3.343953   0.384602   0.39606
H         1.787652   1.167106   0.21960
H         2.287609   -1.827340   -0.04303
H         0.731362   -1.051729   -0.24081
H         0.851278   -0.222841   2.13946
H         0.938335   -1.982814   2.06821
H         2.401299   -1.035142   2.33168
