%chk=C:\Users\User\Desktop\gaussian\pentane\pentane.chk
# hf/3-21g geom=connectivity

Title Card Required

0 1
C         3.529739   0.997884   0.65868
C         2.975281   0.074545   -0.41123
C         1.551976   -0.335119   -0.14370
O         0.901997   -0.001537   0.82972
O         1.071562   -1.120303   -1.12134
H         3.504136   0.517411   1.63439
H         4.559586   1.267371   0.43110
H         2.939985   1.909848   0.72597
H         3.563179   -0.840990   -0.49727
H         3.000337   0.538071   -1.39882
H         0.153887   -1.377591   -0.88186
C         -2.282737   0.071657   0.73393
C         -2.013312   -1.397009   0.69727
C         -2.060442   0.803919   -0.57795
C         -2.344179   2.293667   -0.43422
O         -1.419308   -1.981504   -0.19493
H         -2.384130   -1.974937   1.56081
H         -1.623331   0.470378   1.51463
H         -1.032003   0.654739   -0.90291
H         -2.701082   0.368621   -1.34748
H         -3.304813   0.210360   1.10113
H         -3.372543   2.468841   -0.11549
H         -1.682648   2.740213   0.30881
H         -2.192528   2.817154   -1.37720
