%chk=C:\Users\User\Desktop\gaussian\pentane\pentane.chk
# hf/3-21g geom=connectivity

Title Card Required

0 1
C         -2.614624   0.184604   0.09328
C         -4.102587   0.258640   0.25057
O         -1.814554   0.694563   0.86424
O         -2.255608   -0.505086   -0.99430
H         -1.263801   -0.505669   -1.02982
H         -4.349878   0.806645   1.15241
H         -4.531481   0.751540   -0.61988
H         -4.513441   -0.748090   0.29297
C         2.337562   -0.693121   0.847138
C         1.209464   -1.214002   -0.02669
C         3.458765   0.030188   0.10334
C         3.071706   1.393145   -0.46256
O         0.395904   -0.175110   -0.58591
H         1.915744   -0.039232   1.61762
H         2.756694   -1.556470   1.37192
H         1.613315   -1.761107   -0.87903
H         0.581973   -1.901154   0.54932
H         -0.018294   0.310022   0.15142
H         4.297463   0.157360   0.79142
H         3.819591   -0.615573   -0.70231
H         2.688823   2.040588   0.32805
H         3.937445   1.885231   -0.90564
H         2.298196   1.304241   -1.22107
