%chk=C:\Users\User\Desktop\gaussian\pentane\pentane.chk
# hf/3-21g geom=connectivity

Title Card Required

0 1
C         -3.220202   1.042661   0.10127
C         -2.218359   0.019638   -0.41786
C         -1.594116   -0.776999   0.71390
C         -0.565422   -1.778093   0.27524
O         -0.231236   -1.960381   -0.88021
H         -0.100082   -2.368753   1.08687
H         -1.109657   -0.118717   1.44492
H         -1.428443   0.517168   -0.98168
H         -2.701561   -0.667822   -1.11356
H         -2.354721   -1.323508   1.28379
H         -4.025873   0.556909   0.65340
H         -2.737802   1.753597   0.77361
H         -3.667736   1.607295   -0.71560
C         3.072018   -0.848758   0.07047
C         2.247220   0.325660   0.58223
C         1.610511   1.125617   -0.54737
C         0.783442   2.299937   -0.03862
H         3.880712   -0.497022   -0.57148
H         2.451537   -1.527781   -0.51531
H         3.517733   -1.414183   0.88884
H         1.461497   -0.037230   1.25282
H         2.874405   0.989614   1.18407
H         0.988267   0.457839   -1.14913
H         2.399392   1.491816   -1.21005
H         1.403846   2.993541   0.53080
H         0.324163   2.855119   -0.85665
H         -0.016334   1.957190   0.62058
