%chk=C:\Users\User\Desktop\gaussian\pentane\pentane.chk
# hf/3-21g geom=connectivity

Title Card Required

0 1
C         1.941656   1.602682   -0.59955
C         2.134724   0.205604   -1.18159
C         2.465143   -0.872468   -0.15018
C         1.304268   -1.304345   0.73174
O         0.844851   -0.295482   1.63370
H         3.294977   -0.539307   0.48340
H         2.817825   -1.768556   -0.66942
H         0.439103   -1.547531   0.11364
H         1.578156   -2.206847   1.28709
H         1.575702   -0.079267   2.22305
H         2.941981   0.237865   -1.91687
H         1.236220   -0.095822   -1.72822
H         2.835488   1.914624   -0.05575
H         1.765499   2.330499   -1.39190
H         1.102013   1.633467   0.09043
C         -1.840591   1.894516   0.64717
C         -1.919953   0.802818   -0.41198
C         -2.400998   -0.525069   0.15881
C         -2.477341   -1.619033   -0.89916
H         -1.156113   1.597580   1.44210
H         -2.820914   2.071988   1.09230
H         -1.487820   2.836974   0.22769
H         -2.589600   1.111542   -1.22018
H         -0.934361   0.659073   -0.86408
H         -3.386126   -0.383755   0.61228
H         -1.727765   -0.824947   0.96589
H         -1.502817   -1.778845   -1.36459
H         -2.805925   -2.568685   -0.47695
H         -3.175784   -1.344416   -1.69102
