%chk=C:\Users\User\Desktop\gaussian\pentane\pentane.chk
# hf/3-21g geom=connectivity

Title Card Required

0 1
C         -4.628820   -0.893534   0.00011
C         -3.856978   0.413700   0.00007
C         -2.365240   0.209616   -0.00005
O         -1.815559   -0.877619   -0.00012
O         -1.704317   1.373703   0.00001
H         -4.382574   -1.487528   0.87773
H         -5.700506   -0.702034   0.00018
H         -4.382688   -1.487501   -0.87756
H         -4.099750   1.025495   0.87051
H         -4.099883   1.025522   -0.87030
H         -0.734666   1.177936   -0.00004
C         2.753741   -0.775808   -0.00003
C         1.329930   -0.319992   -0.00016
C         3.780777   0.342367   0.00001
C         5.203158   -0.202509   0.00014
O         1.002144   0.859758   -0.00009
H         0.549342   -1.094747   -0.00007
H         2.876563   -1.433174   -0.86863
H         3.617700   0.976837   -0.87200
H         3.617561   0.976886   0.87198
H         2.876443   -1.433135   0.86862
H         5.385023   -0.819205   0.88106
H         5.385165   -0.819254   -0.88070
H         5.934713   0.604134   0.00018
