%chk=C:\Users\User\Desktop\gaussian\pentane\pentane.chk
# hf/3-21g geom=connectivity

Title Card Required

0 1
C         -3.132978   0.298451   0.20517
O         -2.798110   -0.304591   -0.92882
O         -2.358804   0.711791   1.04866
H         -4.218633   0.383041   0.29617
H         -1.804707   -0.353692   -0.95578
C         1.881903   -0.784906   0.752933
C         0.693951   -1.223721   -0.08521
C         2.954385   0.004201   0.00425
C         2.537677   1.412408   -0.40917
O         -0.151808   -0.136761   -0.48642
H         1.518133   -0.205499   1.60809
H         2.330173   -1.693014   1.16598
H         1.034162   -1.685006   -1.01251
H         0.103626   -1.962879   0.46413
H         -0.499792   0.289950   0.31594
H         3.837276   0.069332   0.64387
H         3.257867   -0.565740   -0.87847
H         2.209853   1.985159   0.45993
H         3.375260   1.943706   -0.86077
H         1.716938   1.392528   -1.12164
