%chk=C:\Users\User\Desktop\gaussian\pentane\pentane.chk
# hf/3-21g geom=connectivity

Title Card Required

0 1
C         2.238494   -0.931880   0.26226
O         1.388098   -0.825978   1.13588
N         2.270832   -0.204873   -0.87607
H         3.037054   -0.309606   -1.51545
H         1.595943   0.537312   -1.01477
H         3.060404   -1.659586   0.33129
C         -2.476553   -1.519860   -0.29910
C         -1.525648   -0.362348   -0.57564
C         -1.413943   0.559912   0.62411
C         -0.487795   1.718217   0.44515
O         0.218794   1.907097   -0.53156
H         -0.461886   2.439944   1.28045
H         -2.390258   0.966072   0.91245
H         -1.863694   0.208572   -1.44256
H         -0.535051   -0.746856   -0.81734
H         -1.041714   0.014799   1.49877
H         -2.123869   -2.112265   0.54566
H         -3.477194   -1.157316   -0.05959
H         -2.558025   -2.180154   -1.16167
