%chk=C:\Users\User\Desktop\gaussian\pentane\pentane.chk
# hf/3-21g geom=connectivity

Title Card Required

0 1
C         0.934680   -1.914568   0.209223
C         1.437889   -0.711798   0.502559
C         2.127425   0.184461   -0.475439
C         3.577688   0.451977   -0.070772
H         0.459346   -2.527266   0.962754
H         0.989460   -2.309806   -0.797840
H         1.369834   -0.350362   1.525581
H         2.090633   -0.267554   -1.468857
H         1.592408   1.136344   -0.534889
H         3.624251   0.902805   0.920999
H         4.145201   -0.477704   -0.042895
H         4.062724   1.130422   -0.771896
C         -2.815629   -1.286055   -0.345194
C         -2.325634   -0.067039   0.424903
C         -1.633671   0.947468   -0.476037
C         -1.089278   2.138035   0.302577
H         -1.977743   -1.795925   -0.823049
H         -3.518716   -0.994607   -1.126890
H         -3.317031   -2.001185   0.306854
H         -3.164895   0.416184   0.933120
H         -1.625946   -0.381968   1.203492
H         -2.338877   1.292594   -1.237400
H         -0.818870   0.448136   -1.007062
H         -0.362055   1.809227   1.047114
H         -0.599170   2.860131   -0.350924
H         -1.891377   2.655642   0.830859
