%chk=C:\Users\User\Desktop\gaussian\pentane\pentane.chk
# hf/3-21g geom=connectivity

Title Card Required

0 1
C         0.346793   2.564580   -0.21977
C         1.516699   1.918880   -0.18924
C         1.770378   0.641839   0.54470
C         2.272110   -0.468238   -0.37971
C         2.515746   -1.768359   0.37465
H         -0.511051   2.191244   0.32599
H         0.223359   3.481182   -0.77990
H         2.353482   2.328973   -0.74867
H         2.521854   0.808945   1.32358
H         0.855541   0.314921   1.04619
H         1.538037   -0.629588   -1.17212
H         3.193418   -0.138737   -0.86729
H         3.254162   -1.624913   1.16483
H         1.591704   -2.119298   0.83554
H         2.880938   -2.553131   -0.28758
C         -1.186067   -2.129815   -0.57630
C         -1.392856   -0.826083   -0.36811
C         -2.319638   -0.265299   0.66295
C         -3.402811   0.608509   0.02992
H         -0.512652   -2.477422   -1.34781
H         -1.688373   -2.877708   0.02502
H         -0.874863   -0.102863   -0.99274
H         -2.773794   -1.082172   1.22753
H         -1.749443   0.335962   1.37764
H         -2.955582   1.425140   -0.53820
H         -4.014572   0.021979   -0.65492
H         -4.054287   1.041407   0.78848
