%chk=C:\Users\User\Desktop\gaussian\pentane\pentane.chk
# hf/3-21g geom=connectivity

Title Card Required

0 1
C         -1.556398   1.776676   -0.45627
C         -2.693229   0.760191   -0.50866
C         -2.241798   -0.699003   -0.46090
C         -1.746733   -1.181311   0.89496
O         -0.534949   -0.566905   1.32542
H         -1.459360   -0.868850   -1.20873
H         -3.081517   -1.342301   -0.74107
H         -2.484553   -0.943853   1.66284
H         -1.631372   -2.270454   0.87476
H         0.145745   -0.789013   0.67414
H         -3.263475   0.914837   -1.42764
H         -3.387525   0.941043   0.31692
H         -0.846830   1.595530   -1.26644
H         -1.938762   2.791294   -0.57100
H         -1.012378   1.712157   0.48249
C         1.751474   -1.741106   -0.78865
C         2.030032   -0.435856   -0.89169
C         2.975266   0.310117   -0.00472
C         2.291439   1.475693   0.71250
H         1.057998   -2.224457   -1.46373
H         2.225930   -2.353880   -0.03193
H         1.533510   0.144999   -1.66497
H         3.411269   -0.378980   0.72113
H         3.796982   0.697962   -0.61294
H         1.848668   2.164994   -0.00723
H         1.495980   1.119538   1.36624
H         3.008958   2.032261   1.31438
