%chk=C:\Users\User\Desktop\gaussian\pentane\pentane.chk
# hf/3-21g geom=connectivity

Title Card Required

0 1
C         2.710360   0.397720   -0.68304
C         1.982910   -0.769488   -0.04262
O         1.349528   -0.409175   1.18064
H         2.008083   1.189014   -0.94770
H         3.221853   0.079914   -1.59249
H         3.445212   0.808295   0.00735
H         1.253368   -1.191184   -0.74222
H         2.685504   -1.560986   0.21397
H         0.660104   0.233341   0.96272
C         -0.950863   1.885264   0.33036
C         -1.355957   0.886596   -0.46322
C         -2.365005   -0.150449   -0.08496
C         -1.797324   -1.567350   -0.18283
H         -0.218425   2.608670   -0.00101
H         -1.359094   2.005040   1.32653
H         -0.925618   0.802120   -1.45836
H         -2.722126   0.044949   0.92792
H         -3.227337   -0.064124   -0.75161
H         -1.443197   -1.771016   -1.19424
H         -0.960226   -1.696879   0.50257
H         -2.559052   -2.307513   0.05940
