%chk=C:\Users\User\Desktop\gaussian\pentane\pentane.chk
# hf/3-21g geom=connectivity

Title Card Required

0 1
C         -2.238326   0.200976   1.05174
C         -2.095516   -0.121782   -0.40261
O         -1.774794   -1.212476   -0.83591
H         -2.302070   0.711094   -1.09790
H         -2.028463   -0.672787   1.66227
H         -1.550906   1.011612   1.29910
H         -3.249825   0.562290   1.24460
C         0.899455   1.972561   -0.25267
C         1.032228   0.670328   -0.52479
C         1.350021   -0.384523   0.48489
C         2.675980   -1.079451   0.17160
H         0.688385   2.693625   -1.03036
H         1.009206   2.343883   0.75930
H         0.921389   0.333723   -1.55204
H         1.385989   0.062954   1.48076
H         0.550465   -1.130429   0.48604
H         2.647192   -1.530843   -0.82031
H         3.499221   -0.365924   0.19313
H         2.884722   -1.868044   0.89372
