%chk=C:\Users\User\Desktop\gaussian\pentane\pentane.chk
# hf/3-21g geom=connectivity

Title Card Required

0 1
C         4.00666900   0.67293400   -0.0372570
C         2.73739600   -0.05505400   -0.4941150
C         2.06130700   -0.78872300   0.6626120
C         0.78583400   -1.50353700   0.2951140
O         0.25742200   -1.46801800   -0.8134960
H         0.31003500   -2.08999700   1.1183510
H         2.73744800   -1.53807100   1.1181980
H         2.97526900   -0.77628000   -1.2936270
H         2.02442700   0.66512600   -0.9260070
H         1.79680600   -0.08785600   1.4780900
H         3.77138100   1.41973300   0.7386210
H         4.73992800   -0.03443100   0.3845300
H         4.48950900   1.19742100   -0.8764870
C         -4.00617000   -0.67364000   0.0324140
C         -2.73760900   0.05368700   0.4923090
C         -2.06054900   0.79012300   -0.6620890
C         -0.78605700   1.50511100   -0.2916610
O         -0.25845300   1.46708100   0.8172640
H         -0.31010100   2.09420600   -1.1129240
H         -1.79453100   0.09098200   -1.4785740
H         -2.02489000   -0.66728400   0.9232510
H         -2.97656500   0.77307600   1.2931520
H         -2.73666700   1.53980900   -1.1171540
H         -4.73918300   0.03446100   -0.3885670
H         -3.76977900   -1.41861500   -0.7448800
H         -4.48976200   -1.20018400   0.8699210
