%chk=C:\Users\User\Desktop\gaussian\pentane\pentane.chk
# hf/3-21g geom=connectivity

Title Card Required

0 1
C         2.26336800   1.63905900   0.2341050
C         1.92366600   0.55201100   -0.1948360
C         1.51789100   -0.76753000   -0.6695170
C         1.50124500   -1.80372700   0.4557250
H         2.56466200   2.59062900   0.5966380
H         0.52368500   -0.69906400   -1.1160800
H         2.20110200   -1.08378200   -1.4600280
H         1.19970400   -2.77556000   0.0674730
H         2.48809500   -1.89681900   0.9062830
H         0.79332800   -1.51464400   1.2305960
C         -2.26135700   -1.63900500   -0.2380980
C         -1.92253700   -0.55258400   0.1931060
C         -1.51787400   0.76631200   0.6704910
C         -1.50355000   1.80515800   -0.4523450
H         -2.56190000   -2.59005700   -0.6026280
H         -2.20070400   1.07991100   1.4623930
H         -0.52319500   0.69795000   1.1159980
H         -1.20247000   2.77636800   -0.0621770
H         -0.79637200   1.51853400   -1.2287990
H         -2.49104800   1.89837500   -0.9014520
