%chk=C:\Users\User\Desktop\gaussian\pentane\pentane.chk
# hf/3-21g geom=connectivity

Title Card Required

0 1
C         1.16247300   1.98798700   -0.1244030
C         2.19033800   1.16461500   0.1022310
C         2.35879800   -0.17956600   -0.5319630
C         2.47776600   -1.28976100   0.5126600
H         1.09039400   2.94804900   0.3680790
H         0.37443600   1.71564600   -0.8153580
H         2.96252000   1.46886700   0.8040640
H         1.51476000   -0.37330000   -1.1969240
H         3.26155200   -0.17666800   -1.1491050
H         3.32304700   -1.10557800   1.1766610
H         1.57809200   -1.34468400   1.1255250
H         2.62856900   -2.26038800   0.0402830
C         -1.14767200   -1.90084000   -0.4841900
C         -1.40591300   -0.81482200   0.2501410
C         -2.75441900   -0.18244500   0.3876790
C         -2.75713300   1.25870300   -0.1237770
H         -0.14867800   -2.30882200   -0.5559490
H         -1.93684800   -2.40787200   -1.0258070
H         -0.58899400   -0.32564700   0.7742530
H         -3.49219500   -0.77694000   -0.1548310
H         -3.04981500   -0.18610300   1.4402800
H         -2.02542900   1.86051800   0.4160580
H         -2.50110500   1.28942300   -1.1828620
H         -3.73573200   1.72027600   0.0053570
