%chk=C:\Users\User\Desktop\gaussian\pentane\pentane.chk
# hf/3-21g geom=connectivity

Title Card Required

0 1
C         -2.069570   0.242061   0.11719
O         -1.511858   -0.674169   0.89995
O         -1.575811   0.716513   -0.88869
H         -3.054180   0.529101   0.49453
H         -0.621631   -0.891137   0.51400
C         1.929066   0.925047   0.58503
C         2.029904   -0.354810   -0.21997
O         0.741449   -0.881199   -0.56210
H         1.418162   1.700567   0.01424
H         2.924036   1.289658   0.84041
H         1.375847   0.755953   1.50783
H         2.609462   -0.195412   -1.13130
H         2.519563   -1.138724   0.35397
H         0.262104   -0.212957   -1.08055
