%chk=C:\Users\User\Desktop\gaussian\pentane\pentane.chk
# hf/3-21g geom=connectivity

Title Card Required

0 1
C         1.205774   1.536841   -0.38853
C         1.744724   0.505422   0.59381
C         1.834210   -0.885972   -0.00944
O         0.568922   -1.380672   -0.44664
H         1.110761   0.464514   1.48495
H         2.741540   0.792911   0.93799
H         2.457267   -0.867395   -0.90387
H         2.290768   -1.579826   0.70269
H         -0.015508   -1.401460   0.31928
H         1.133817   2.521656   0.07154
H         1.861744   1.617513   -1.25622
H         0.217397   1.251932   -0.74525
C         -2.635518   0.151469   -0.64810
C         -2.370153   -0.006315   0.84472
H         -2.737665   1.202277   -0.91688
H         -3.555256   -0.355301   -0.93749
H         -1.820865   -0.268134   -1.23672
H         -3.182936   0.407553   1.44050
H         -1.454725   0.508140   1.13843
H         -2.271936   -1.057678   1.11942
