%chk=C:\Users\User\Desktop\gaussian\pentane\pentane.chk
# hf/3-21g geom=connectivity

Title Card Required

0 1
C         3.056872   -0.440303   0.12233
C         1.621417   -0.029043   -0.08139
O         0.906960   -0.600520   -0.90927
N         1.168697   0.987399   0.68668
H         3.565926   0.143345   0.88565
H         3.077199   -1.492658   0.39727
H         3.581915   -0.335182   -0.82463
H         0.206780   1.288403   0.57124
H         1.772744   1.449872   1.33916
C         -2.396659   -0.914652   0.793800
C         -2.621257   0.146493   -0.26750
O         -1.431891   0.874246   -0.56074
H         -1.655106   -1.639134   0.45690
H         -3.324587   -1.446497   1.00709
H         -2.038123   -0.459736   1.71648
H         -3.017087   -0.308440   -1.17972
H         -3.347220   0.883073   0.074180
H         -0.766116   0.240393   -0.893736
