%chk=C:\Users\User\Desktop\gaussian\pentane\pentane.chk
# hf/3-21g geom=connectivity

Title Card Required

0 1
C         -1.189311   -2.333412   -0.13675
C         -1.161565   -0.874175   -0.57013
C         -1.191322   0.066349   0.63793
C         -1.200724   1.472193   0.24941
C         -1.208129   2.632657   -0.11548
H         -2.098904   -2.554364   0.42307
H         -1.153457   -3.002501   -0.99552
H         -0.338994   -2.565719   0.50574
H         -0.264980   -0.666491   -1.15688
H         -2.016196   -0.652420   -1.21132
H         -2.076269   -0.146639   1.24302
H         -0.322181   -0.128708   1.27150
H         -1.213716   3.648998   -0.42321
C         2.477086   0.605815   -0.48445
C         2.543100   -0.573711   0.47910
H         3.242726   1.344769   -0.25052
H         1.510496   1.106617   -0.43620
H         2.634344   0.281612   -1.51285
H         2.373051   -0.253429   1.50689
H         3.517165   -1.060544   0.44273
H         1.792102   -1.325480   0.23588
