%chk=C:\Users\User\Desktop\gaussian\pentane\pentane.chk
# hf/3-21g geom=connectivity

Title Card Required

0 1
C         -1.208308   1.823952   0.07535
C         -1.809815   0.647537   -0.12254
C         -1.429592   -0.628117   0.55921
C         -1.004699   -1.701598   -0.44348
H         -1.518158   2.712599   -0.45666
H         -0.391762   1.919675   0.78050
H         -2.623448   0.588694   -0.84061
H         -0.622541   -0.432702   1.26793
H         -2.281214   -0.998312   1.13640
H         -1.809256   -1.909741   -1.14958
H         -0.135772   -1.373759   -1.01359
H         -0.751855   -2.633565   0.06175
C         2.410114   -0.225820   0.69012
C         2.350404   0.367605   -0.71262
H         3.427159   -0.513449   0.95451
H         1.784325   -1.114424   0.76949
H         2.065509   0.490032   1.43630
H         2.683762   -0.353406   -1.45855
H         2.988847   1.246711   -0.79448
H         1.335781   0.670291   -0.96964
