%chk=C:\Users\User\Desktop\gaussian\pentane\pentane.chk
# hf/3-21g geom=connectivity

Title Card Required

0 1
C         -0.909338   2.031819   -0.430814
C         -1.108982   0.960406   0.109519
C         -1.357492   -0.341982   0.719500
C         -1.866364   -1.364672   -0.298232
H         -0.733233   2.971700   -0.892504
H         -0.433202   -0.700535   1.176942
H         -2.083494   -0.224343   1.526011
H         -2.043815   -2.324739   0.184651
H         -2.797744   -1.024858   -0.747719
H         -1.136541   -1.506346   -1.093285
C         2.513135   0.225567   0.476236
C         2.007143   -0.771704   -0.559234
H         2.954738   1.097383   -0.005070
H         3.272475   -0.220564   1.117742
H         1.701909   0.582194   1.110082
H         2.814062   -1.108571   -1.209334
H         1.236701   -0.322961   -1.185423
H         1.579539   -1.654957   -0.083945
