%chk=C:\Users\User\Desktop\gaussian\pentane\pentane.chk
# hf/3-21g geom=connectivity

Title Card Required

0 1
C         3.053813   -0.201496   -0.98112
C         2.446413   0.600090   0.16232
C         1.540107   -0.245060   1.04380
O         0.434572   -0.787591   0.33219
H         1.866667   1.439852   -0.23076
H         3.235077   1.027841   0.78719
H         2.094505   -1.100626   1.43310
H         1.194254   0.344929   1.89905
H         -0.132170   -0.045880   0.06261
H         3.675583   0.424473   -1.62031
H         3.675928   -1.009780   -0.59410
H         2.270991   -0.647666   -1.59180
C         -2.966208   -0.893434   -0.42986
C         -2.693621   0.399484   0.30938
O         -1.592430   1.126277   -0.25965
H         -3.252388   -0.695464   -1.46391
H         -3.785152   -1.433259   0.04580
H         -2.079807   -1.525330   -0.42427
H         -3.580616   1.036185   0.33282
H         -2.393826   0.199004   1.33570
H         -1.809203   1.318741   -1.17861
