%chk=C:\Users\User\Desktop\gaussian\pentane\pentane.chk
# hf/3-21g geom=connectivity

Title Card Required

0 1
C         -2.650698   -0.295681   0.12338
C         -1.156520   -0.426091   -0.07399
C         -3.107646   1.151547   0.000788
O         -0.555512   0.254625   -0.91029
N         -0.527824   -1.338505   0.70101
H         0.467132   -1.484601   0.56784
H         -1.040774   -1.892491   1.36072
H         -2.791088   1.562507   -0.95455
H         -4.191731   1.218351   0.072628
H         -2.672957   1.762508   0.79083
H         -3.121612   -0.902901   -0.65320
H         -2.942419   -0.721052   1.08456
C         2.611154   1.119169   0.808731
C         3.036804   0.138059   -0.26804
O         2.007127   -0.795057   -0.58314
H         1.747727   1.696579   0.47784
H         3.421172   1.812549   1.03791
H         2.340496   0.588895   1.72112
H         3.344737   0.675604   -1.16921
H         3.886703   -0.454737   0.067546
H         1.235900   -0.290234   -0.908944
