%chk=C:\Users\User\Desktop\gaussian\pentane\pentane.chk
# hf/3-21g geom=connectivity

Title Card Required

0 1
C         1.456613   1.232882   -0.26381
C         1.505670   -0.032694   0.56864
O         1.517507   -1.211470   -0.23630
H         2.351287   1.323980   -0.88152
H         1.401413   2.112506   0.37837
H         0.585586   1.222201   -0.91675
H         2.370200   -0.019145   1.23831
H         0.612411   -0.119570   1.18499
H         2.306528   -1.182382   -0.78754
C         -2.298118   0.707542   0.02285
C         -2.094154   -0.802139   -0.04040
H         -3.289863   0.957970   0.39815
H         -2.194191   1.161630   -0.96233
H         -1.569002   1.179707   0.68138
H         -2.832138   -1.267771   -0.69274
H         -2.196941   -1.253175   0.94627
H         -1.105418   -1.057737   -0.41982
