%chk=C:\Users\User\Desktop\gaussian\pentane\pentane.chk
# hf/3-21g geom=connectivity

Title Card Required

0 1
C         1.365782   1.778056   0.28311
C         2.369982   0.851234   -0.39533
C         1.813988   -0.516643   -0.78710
C         1.472582   -1.432045   0.38181
O         0.322265   -1.027938   1.11495
H         0.922956   -0.397513   -1.41281
H         2.555942   -1.034949   -1.40220
H         2.298452   -1.438855   1.09590
H         1.346557   -2.456486   0.01612
H         -0.447842   -1.145460   0.53466
H         2.754860   1.340475   -1.29348
H         3.230366   0.701498   0.26339
H         0.501777   1.945145   -0.36318
H         1.815772   2.749170   0.49146
H         1.003725   1.351722   1.21543
C         -2.550956   1.014656   0.60477
C         -2.331537   0.310068   -0.71733
O         -2.016267   -1.080311   -0.54550
H         -3.411090   0.595387   1.12865
H         -2.743351   2.074947   0.43907
H         -1.671519   0.912333   1.23833
H         -3.201779   0.412608   -1.36929
H         -1.472624   0.728080   -1.23872
H         -2.769230   -1.504068   -0.11850
