%chk=C:\Users\User\Desktop\gaussian\pentane\pentane.chk
# hf/3-21g geom=connectivity

Title Card Required

0 1
C         0.459161   1.982840   0.25598
C         1.020162   0.774454   -0.48249
C         1.648638   -0.244483   0.45966
C         2.171027   -1.472042   -0.27564
H         1.244490   2.492317   0.81606
H         -0.310174   1.677532   0.96684
H         0.014817   2.704598   -0.42935
H         0.225285   0.288767   -1.05533
H         1.769541   1.099039   -1.20969
H         0.907404   -0.547105   1.20408
H         2.463618   0.232975   1.01051
H         2.924443   -1.190440   -1.01247
H         2.622628   -2.190164   0.40826
H         1.362398   -1.977191   -0.80611
C         -2.844558   0.005884   -0.44492
C         -2.157384   -0.987368   0.48477
H         -3.726801   0.438851   0.02514
H         -3.164248   -0.475801   -1.36828
H         -2.176680   0.824432   -0.71114
H         -2.828911   -1.800870   0.75718
H         -1.831575   -0.505178   1.40612
H         -1.278512   -1.427468   0.01403
