%chk=C:\Users\User\Desktop\gaussian\pentane\pentane.chk
# hf/3-21g geom=connectivity

Title Card Required

0 1
C         1.764348   0.044289   -0.00024
C         3.190043   -0.333572   0.26292
O         1.343552   1.191588   0.00432
O         0.996427   -1.023061   -0.24505
H         0.076518   -0.691193   -0.41249
H         3.772409   0.555492   0.47553
H         3.233163   -1.025439   1.10172
H         3.591753   -0.848314   -0.60783
C         -3.242806   -0.665469   0.15626
C         -2.301244   0.494953   0.37337
O         -1.265113   0.410872   -0.61265
H         -3.663051   -0.626705   -0.84695
H         -4.057662   -0.630410   0.87818
H         -2.716102   -1.611162   0.27494
H         -2.829949   1.444082   0.26567
H         -1.866957   0.457711   1.37584
H         -0.601098   1.099545   -0.43143
