%chk=C:\Users\User\Desktop\gaussian\pentane\pentane.chk
# hf/3-21g geom=connectivity

Title Card Required

0 1
C         -1.475411   -1.337843   -0.51563
C         -1.690052   -0.356128   0.62197
C         -1.187898   1.027179   0.32487
O         -0.687057   1.364570   -0.73070
H         -1.301224   1.759812   1.14550
H         -2.749493   -0.258819   0.88127
H         -1.979628   -0.997136   -1.41783
H         -0.416140   -1.430312   -0.74925
H         -1.860185   -2.321294   -0.25242
H         -1.197833   -0.682625   1.54341
C         2.113467   -0.184589   0.85883
C         2.455390   -0.147475   -0.62597
H         2.966504   -0.505315   1.45612
H         1.296263   -0.878473   1.05791
H         1.810474   0.799758   1.21527
H         2.739190   -1.135211   -0.98826
H         3.289218   0.526838   -0.81728
H         1.606335   0.199351   -1.21321
