%chk=C:\Users\User\Desktop\gaussian\pentane\pentane.chk
# hf/3-21g geom=connectivity

Title Card Required

0 1
C         2.021491   -1.093909   0.04049
C         1.471158   0.223588   0.57271
C         1.193756   1.216441   -0.54908
H         1.320020   -1.551954   -0.65847
H         2.959297   -0.932381   -0.49282
H         2.210004   -1.806504   0.84305
H         2.181947   0.657827   1.27875
H         0.552529   0.038867   1.13371
H         0.809150   2.161707   -0.16627
H         2.105130   1.428073   -1.11022
H         0.460118   0.812704   -1.24862
C         -2.115079   -0.735346   -0.475774
C         -2.408846   0.415011   0.479865
H         -1.146628   -1.187332   -0.263229
H         -2.101855   -0.394629   -1.510624
H         -2.869380   -1.517188   -0.394570
H         -1.659961   1.201234   0.391707
H         -2.413475   0.075488   1.515145
H         -3.381778   0.859378   0.273199
