%chk=C:\Users\User\Desktop\gaussian\pentane\pentane.chk
# hf/3-21g geom=connectivity

Title Card Required

0 1
C         -1.569713   1.313186   -0.28507
C         -1.307485   0.298887   0.81239
C         -0.881575   -1.045987   0.30250
O         -0.744074   -1.328588   -0.87248
H         -0.688092   -1.806680   1.08222
H         -0.521109   0.635197   1.49554
H         -0.667699   1.484924   -0.86926
H         -2.339659   0.955289   -0.96604
H         -1.893507   2.261955   0.13874
H         -2.190852   0.136511   1.43855
C         2.465900   -0.108207   0.53469
C         2.133500   0.555227   -0.57411
H         2.144332   -1.129011   0.69232
H         3.075414   0.346117   1.30372
H         2.465366   1.571416   -0.73846
H         1.524633   0.094356   -1.33988
