%chk=C:\Users\User\Desktop\gaussian\pentane\pentane.chk
# hf/3-21g geom=connectivity

Title Card Required

0 1
C         -1.730604   1.043445   -0.25239
C         -1.553085   -0.290170   0.44895
O         -0.828115   -1.225656   -0.34262
H         -0.763230   1.510549   -0.44027
H         -2.324418   1.724357   0.35876
H         -2.232804   0.901500   -1.20778
H         -1.064566   -0.148213   1.41844
H         -2.521037   -0.752616   0.63585
H         0.078328   -0.898435   -0.40534
C         2.041242   0.226120   0.72300
C         2.351994   0.141982   -0.57296
H         2.236643   -0.592120   1.40224
H         1.587936   1.117350   1.13523
H         2.159634   0.961241   -1.25191
H         2.811151   -0.746620   -0.98382
