%chk=C:\Users\User\Desktop\gaussian\pentane\pentane.chk
# hf/3-21g geom=connectivity

Title Card Required

0 1
C         1.401110   1.598141   -0.54542
C         2.160055   0.567823   0.28609
C         1.278340   -0.507233   0.92083
C         0.764071   -1.571942   -0.03675
O         -0.129719   -1.081575   -1.03224
H         0.427487   -0.037552   1.42643
H         1.848504   -1.027407   1.69648
H         1.600171   -2.007374   -0.58579
H         0.289736   -2.377302   0.53435
H         -0.889110   -0.695765   -0.57605
H         2.700226   1.086075   1.08175
H         2.918774   0.080896   -0.33310
H         0.634243   2.084861   0.06075
H         2.074995   2.373299   -0.91088
H         0.911245   1.132371   -1.39678
C         -2.460727   1.032856   0.24843
C         -3.176181   -0.093441   0.19035
H         -2.227110   1.598643   -0.64306
H         -2.094476   1.417495   1.19045
H         -3.410599   -0.656755   1.08298
H         -3.546348   -0.476104   -0.75081
