%chk=C:\Users\User\Desktop\gaussian\pentane\pentane.chk
# hf/3-21g geom=connectivity

Title Card Required

0 1
C         -2.465855   -1.320432   0.02443
C         -1.502195   -0.232987   -0.43249
C         -0.892495   0.504879   0.74500
C         0.082492   1.579608   0.36706
O         0.400949   1.855848   -0.77411
H         0.524586   2.136419   1.21520
H         -1.664107   0.970576   1.36905
H         -2.013006   0.482289   -1.07879
H         -0.699649   -0.666355   -1.03047
H         -0.356985   -0.184484   1.40814
H         -1.954464   -2.055508   0.64728
H         -3.283041   -0.898596   0.61106
H         -2.901031   -1.846121   -0.82453
C         2.597854   -0.855072   0.58567
C         2.126423   -1.141967   -0.62912
H         2.850874   -1.633601   1.29224
H         2.753253   0.169284   0.89715
H         1.875851   -0.358604   -1.33131
H         1.982785   -2.166252   -0.94549
