%chk=C:\Users\User\Desktop\gaussian\pentane\pentane.chk
# hf/3-21g geom=connectivity

Title Card Required

0 1
C         -1.607485   1.087141   0.12669
C         -1.281191   -0.354273   0.36197
O         -1.150893   -1.183955   -0.51751
H         -1.154971   -0.646182   1.42031
H         -1.721433   1.287291   -0.93491
H         -2.524443   1.342383   0.66024
H         -0.807834   1.701651   0.54318
C         2.162739   -0.327186   0.47993
C         1.929607   0.502464   -0.53860
H         2.893965   -0.091830   1.24100
H         1.631708   -1.265195   0.56738
H         1.201840   0.258365   -1.30054
H         2.466290   1.436282   -0.63655
