%chk=C:\Users\User\Desktop\gaussian\pentane\pentane.chk
# hf/3-21g geom=connectivity

Title Card Required

0 1
C         -2.973503   0.229070   -0.00038
O         -2.529893   -1.008965   -0.00070
O         -2.297349   1.245760   0.00047
H         -4.066626   0.256204   -0.00099
H         -1.522180   -1.024514   0.00000
C         2.404068   -0.643379   -0.00005
C         0.931847   -0.301735   0.00045
C         3.381587   0.522900   -0.00060
O         0.093995   -1.217638   0.00083
N         0.581435   0.992149   0.00021
H         -0.409312   1.231914   0.00051
H         1.278289   1.713152   0.00002
H         3.262540   1.147068   0.88530
H         4.405332   0.153646   -0.00099
H         3.261783   1.146862   -0.88656
H         2.561385   -1.281754   0.87020
H         2.560731   -1.282023   -0.87023
