%chk=C:\Users\User\Desktop\gaussian\pentane\pentane.chk
# hf/3-21g geom=connectivity

Title Card Required

0 1
C         1.411101   -0.069037   0.00002
C         2.906481   -0.121852   -0.00008
O         0.701996   -1.071377   -0.00004
O         0.941297   1.168774   0.00015
H         -0.052898   1.144825   0.00026
H         3.239493   -1.153063   -0.000604
H         3.283958   0.399403   -0.87759
H         3.283993   0.398484   0.87795
C         -2.425974   0.100299   -0.00008
O         -1.962851   -1.129534   -0.00006
O         -1.758451   1.124534   0.00007
H         -3.517520   0.119463   -0.00016
H         -0.962598   -1.104745   0.00004
