%chk=C:\Users\User\Desktop\gaussian\pentane\pentane.chk
# hf/3-21g geom=connectivity

Title Card Required

0 1
C         -1.708901   -0.116662   0.00009
O         -1.152080   -1.206958   -0.00022
N         -1.074617   1.074516   -0.00003
H         -1.606254   1.925365   0.00004
H         -0.059723   1.106997   -0.00023
H         -2.804295   -0.022634   0.00009
C         2.037143   -0.546216   0.00010
O         1.876137   0.663173   0.00008
H         1.180940   -1.231542   -0.00006
H         3.049743   -0.972249   0.00028
