%chk=C:\Users\User\Desktop\gaussian\pentane\pentane.chk
# hf/3-21g geom=connectivity

Title Card Required

0 1
C         3.022104   -0.088705   0.00035
C         1.514442   -0.070405   -0.00021
O         0.874253   -1.128615   -0.00027
N         0.922262   1.137857   -0.00003
H         3.462836   0.905365   -0.00035
H         3.359265   -0.633723   0.87945
H         3.359850   -0.635308   -0.87752
H         -0.097317   1.208891   0.00002
H         1.477825   1.972682   0.00028
C         -2.568123   0.098971   -0.00004
O         -1.971327   1.176189   -0.00031
N         -1.981871   -1.106435   0.00026
H         -2.553550   -1.931376   0.00050
H         -0.960080   -1.186123   0.00023
H         -3.665515   0.059883   0.00001
