%chk=C:\Users\User\Desktop\gaussian\pentane\pentane.chk
# hf/3-21g geom=connectivity

Title Card Required

0 1
C         1.90238800   -0.16919700   0.0009520
O         1.50503500   1.08415400   0.0001520
O         1.18245600   -1.15719500   -0.0011320
H         2.99111900   -0.24500400   0.0038480
H         0.50829800   1.11598700   -0.0014530
C         -1.90288300   0.16858700   0.0009510
O         -1.50349300   -1.08406800   0.0002660
O         -1.18378500   1.15724800   -0.0011490
H         -2.99169900   0.24329600   0.0036300
H         -0.50645100   -1.11172500   -0.0025440
