%chk=C:\Users\User\Desktop\gaussian\pentane\pentane.chk
# hf/3-21g geom=connectivity

Title Card Required

0 1
C         -1.968225   0.150153   -0.00008
O         -1.490997   -1.077206   -0.00010
O         -1.319056   1.183300   0.00002
H         -3.061272   0.146047   -0.00016
H         -0.489103   -1.062965   -0.00000
C         1.942414   -0.228202   -0.00004
O         1.171237   -1.191200   0.00000
N         1.565323   1.054941   0.00014
H         2.259116   1.779953   0.00031
H         0.572051   1.283100   0.00013
H         3.027347   -0.381576   0.00015
