%chk=C:\Users\User\Desktop\gaussian\pentane\pentane.chk
# hf/3-21g geom=connectivity

Title Card Required

0 1
C         -0.04023800   2.03222200   0.0000000
O         -1.12590900   1.45148000   0.0000000
N         1.15723000   1.42909800   0.0000000
H         1.99042300   1.98867800   0.0000000
H         1.22445600   0.40831900   0.0000000
H         0.01519100   3.12870200   0.0000000
C         0.04023000   -2.03223800   0.0000000
O         1.12591200   -1.45151700   0.0000000
N         -1.15722300   -1.42908500   0.0000000
H         -1.99043100   -1.98864200   0.0000000
H         -1.22441900   -0.40830000   0.0000000
H         -0.01522100   -3.12871800   0.0000000
