%chk=C:\Users\User\Desktop\gaussian\pentane\pentane.chk
# hf/3-21g geom=connectivity

Title Card Required

0 1
C         -3.18200100   1.90132500   0.34097200
C         -1.89463600   1.91169700   -0.47390300
C         -0.64798400   1.91755000   0.40194600
C         0.64727900   1.91554700   -0.39923400
C         1.89402500   1.91703800   0.47649700
C         3.18126700   1.90108100   -0.33850800
H         -0.66626100   1.04349200   1.06137100
H         -0.66944100   2.79652200   1.05476500
H         -1.86579400   1.03802500   -1.13094900
H         -1.87727100   2.78878200   -1.12667000
H         -4.06397500   1.89644200   -0.29944600
H         -3.23869800   2.78079200   0.98388600
H         -3.22867600   1.01859900   0.98031300
H         0.66639300   1.03714600   -1.05285100
H         0.66776000   2.79017200   -1.05785500
H         1.86568800   1.04834400   1.14017500
H         1.87624600   2.79905500   1.12257500
H         4.06336600   1.90184700   0.30175400
H         3.23724800   2.77548800   -0.98836200
H         3.22837000   1.01337300   -0.97085100
C         3.18196600   -1.90232000   0.33848200
C         1.89469300   -1.91592800   -0.47650700
C         0.64797800   -1.91634900   0.39926500
C         -0.64727200   -1.91632400   -0.40191200
C         -1.89396400   -1.91365800   0.47391900
C         -3.18128700   -1.89972400   -0.34099800
H         0.66724700   -1.03950300   1.05498400
H         0.66839500   -2.79251400   1.05584100
H         1.86656400   -1.04560600   -1.13804000
H         1.87669400   -2.79633200   -1.12476500
H         4.06404100   -1.90165500   -0.30181500
H         3.23777700   -2.77838900   0.98610600
H         3.22929600   -1.01622900   0.97309200
H         -0.66576800   -1.04030400   -1.05873700
H         -0.66845500   -2.79333900   -1.05732300
H         -1.86491300   -1.04259000   1.13442200
H         -1.87678700   -2.79332100   1.12321300
H         -4.06330900   -1.89728700   0.29936400
H         -3.23807800   -2.77655800   -0.98750200
H         -3.22772400   -1.01438400   -0.97671500
