%chk=C:\Users\User\Desktop\gaussian\pentane\pentane.chk
# hf/3-21g geom=connectivity

Title Card Required

0 1
C         -2.11687400   -0.44504300   0.2181270
O         -1.30024200   0.68911800   -0.0879350
H         -1.52341800   -1.08334300   0.8650330
H         -2.37831700   -1.00329100   -0.6804840
H         -3.02428700   -0.14719800   0.7428350
H         -1.77580800   1.24795700   -0.7094900
C         2.25236300   0.15990900   0.3229050
O         1.28167900   -0.47430500   -0.4938340
H         3.16015800   -0.43549200   0.2661150
H         1.93756900   0.21113600   1.3679480
H         2.48102900   1.17079700   -0.0229000
H         0.45864500   0.03173600   -0.4210930
