%chk=C:\Users\User\Desktop\gaussian\pentane\pentane.chk
# hf/3-21g geom=connectivity

Title Card Required

0 1
C         4.38079303   1.94770165   0.5776072
C         3.14921556   1.94243610   -0.3469409
C         1.86700523   1.94421076   0.5060148
C         0.63542771   1.93894521   -0.4185332
C         -0.64678260   1.94071990   0.4344225
C         -1.87836005   1.93545434   -0.4901255
C         -3.16057033   1.93722901   0.3628302
C         -4.39214779   1.93196347   -0.5617179
C         -5.67435809   1.93373813   0.2912379
C         -6.90593527   1.92847446   -0.6333105
C         -8.18814558   1.93024950   0.2196451
C         -9.41972277   1.92498853   -0.7049033
C         -10.70193308   1.92676488   0.1480524
C         -11.93351027   1.92150453   -0.7764960
C         -13.21572058   1.92328119   0.0764597
C         -14.44729777   1.91802350   -0.8480887
C         -15.72950809   1.91980145   0.0048669
C         -16.96108528   1.91454690   -0.9196815
H         -0.66325882   1.06952207   1.0554240
H         -0.66548635   2.81680935   1.0484400
H         -1.85965630   1.05936489   -1.1041430
H         -1.86188384   2.80665219   -1.1111270
H         -3.17927407   2.81331846   0.9768476
H         -3.17704652   1.06603115   0.9838316
H         0.65413144   1.06285575   -1.0325506
H         0.65190391   2.81014306   -1.0395346
H         1.85052903   1.07301289   1.1270163
H         1.84830148   2.82030020   1.1200323
H         3.16569179   2.81363396   -0.9679423
H         3.16791932   1.06634665   -0.9609583
H         -4.37344404   1.05587402   -1.1757353
H         -4.37567160   2.80316133   -1.1827193
H         4.36431732   1.07650292   1.1986074
H         5.27167923   1.94647039   -0.0150311
H         4.36208858   2.82379020   1.1916259
H         -5.69083449   1.06253964   0.9122384
H         -5.69306145   2.80982692   0.9052563
H         -6.88723167   1.05238557   -1.2473288
H         -6.88945835   2.79967285   -1.2543112
H         -8.20462303   1.05905020   0.8406446
H         -8.20684791   2.80633750   0.8336647
H         -9.40102054   1.04890012   -1.3189223
H         -9.40324447   2.79618741   -1.3259033
H         -10.71841120   1.05556582   0.7690522
H         -10.72063472   2.80285312   0.7620717
H         -11.91480835   1.04541622   -1.3905152
H         -11.91703166   2.79270352   -1.3974958
H         -13.23219971   1.05208130   0.6974582
H         -13.23442123   2.79936861   0.6904801
H         -14.42859721   1.04193567   -1.4621086
H         -14.43081780   2.78922298   -1.4690878
H         -15.74598872   1.04860092   0.6258645
H         -15.74820722   2.79588824   0.6188883
H         -16.94238631   1.03845962   -1.5337022
H         -17.85197167   1.91578328   -0.3270434
H         -16.94460372   2.78574694   -1.5406798
C         4.38151115   -1.94610842   -0.5775826
C         3.14992139   -1.94376870   0.3469611
C         1.86772256   -1.94273693   -0.5060131
C         0.63613288   -1.94039720   0.4185306
C         -0.64606599   -1.93936540   -0.4344436
C         -1.87765574   -1.93702567   0.4901001
C         -3.15985464   -1.93599389   -0.3628740
C         -4.39144438   -1.93365416   0.5616697
C         -5.67364324   -1.93262240   -0.2913045
C         -6.90523268   -1.93028050   0.6332396
C         -8.18743154   -1.92924833   -0.2197345
C         -9.41902098   -1.92690369   0.7048096
C         -10.70121983   -1.92587021   -0.1481645
C         -11.93280926   -1.92352495   0.7763796
C         -13.21500812   -1.92249116   -0.0765946
C         -14.44659755   -1.92014324   0.8479495
C         -15.72879640   -1.91910816   -0.0050246
C         -16.96038583   -1.91675962   0.9195195
H         0.65486716   -1.06629251   1.0353693
H         0.65256213   -2.81359313   1.0367207
H         1.85129332   -1.06954101   -1.1242032
H         1.84898830   -2.81684162   -1.1228518
H         3.16635061   -2.81696464   0.9651511
H         3.16865563   -1.06966399   0.9637997
H         -0.66249520   -1.06616947   -1.0526336
H         -0.66480023   -2.81347009   -1.0512823
H         -1.85892148   -1.06292096   1.1069388
H         -1.86122649   -2.81022161   1.1082902
H         -3.17858890   -2.81009859   -0.9797127
H         -3.17628388   -1.06279795   -0.9810641
H         -4.37271014   -1.05954945   1.1785084
H         -4.37501516   -2.80685009   1.1798597
H         5.27238937   -1.94682468   0.0150685
H         4.36277681   -2.82021340   -1.1944209
H         4.36508184   -1.07291279   -1.1957731
H         -5.69237779   -2.80672784   -0.9081421
H         -5.69007199   -1.05942723   -0.9094956
H         -6.88880370   -2.80347577   1.2514306
H         -6.88649761   -1.05617516   1.2500774
H         -8.20616715   -2.80335456   -0.8365710
H         -8.20385923   -1.05605396   -0.8379268
H         -9.40259338   -2.80009847   1.3230013
H         -9.40028451   -1.05279786   1.3216467
H         -10.71995612   -2.79997620   -0.7650014
H         -10.71764685   -1.05267560   -0.7663565
H         -11.91638198   -2.79671962   1.3945714
H         -11.91407249   -1.04941901   1.3932164
H         -13.23374541   -2.79659798   -0.6934302
H         -13.23143414   -1.04929738   -0.6947877
H         -14.43017161   -2.79333743   1.4661421
H         -14.42785941   -1.04603683   1.4647857
H         -15.74753436   -2.79321474   -0.6218605
H         -15.74522175   -1.04591414   -0.6232175
H         -17.85126425   -1.91603848   0.3268686
H         -16.94396113   -2.78995458   1.5377110
H         -16.94164647   -1.04265398   1.5363567
