%chk=C:\Users\User\Desktop\gaussian\pentane\pentane.chk
# hf/3-21g geom=connectivity

Title Card Required

0 1
C         -1.951546   -2.036120   -0.09296
C         -2.254932   -0.839252   0.79842
C         -2.871448   0.315641   0.02438
O         -2.020360   0.800002   -1.00985
H         -1.340450   -0.487632   1.28497
H         -2.943333   -1.125738   1.59805
H         -3.781468   -0.017345   -0.47661
H         -3.145019   1.125475   0.70805
H         -1.257177   1.215395   -0.58518
H         -1.468313   -2.837417   0.46551
H         -2.871049   -2.434351   -0.52422
H         -1.299743   -1.745099   -0.91526
C         0.665397   2.527061   0.00018
C         0.942427   1.349840   0.57430
C         1.460459   0.149290   -0.14884
C         2.857069   -0.250558   0.33095
C         3.361394   -1.503344   -0.37361
H         0.790799   2.669357   -1.06646
H         0.315751   3.369434   0.58093
H         0.812823   1.250836   1.64912
H         0.782650   -0.695946   0.00793
H         1.480031   0.346555   -1.22384
H         3.543170   0.581483   0.15841
H         2.831180   -0.416049   1.41103
H         2.693532   -2.345583   -0.18913
H         3.409581   -1.347331   -1.45179
H         4.356986   -1.781413   -0.02963
