%chk=C:\Users\User\Desktop\gaussian\pentane\pentane.chk
# hf/3-21g geom=connectivity

Title Card Required

0 1
C         1.159718   -1.667848   -0.88248
C         2.592650   -1.226828   -0.59699
C         2.744328   0.260947   -0.27937
C         2.308696   0.670127   1.11981
O         0.920338   0.481705   1.38061
H         2.195350   0.855115   -1.01763
H         3.796699   0.544275   -0.37760
H         2.827909   0.057179   1.85803
H         2.590528   1.712842   1.30060
H         0.424342   1.064634   0.78812
H         3.212043   -1.460725   -1.46588
H         2.998706   -1.808762   0.23527
H         0.742686   -1.089324   -1.70961
H         1.126188   -2.720363   -1.16555
H         0.523183   -1.520768   -0.01330
C         -0.701644   2.290729   -0.94511
C         -1.747575   1.734475   -0.32131
C         -2.266707   0.358382   -0.58719
C         -2.357295   -0.491518   0.68167
C         -2.856606   -1.898549   0.38019
H         -0.168300   1.753726   -1.72028
H         -0.373923   3.294816   -0.71199
H         -2.262800   2.307859   0.44495
H         -3.266196   0.430096   -1.02927
H         -1.627215   -0.138380   -1.32155
H         -1.376372   -0.536583   1.15824
H         -3.029421   -0.001358   1.39080
H         -3.842069   -1.871326   -0.08725
H         -2.176635   -2.408709   -0.30347
H         -2.930799   -2.497385   1.28727
