%chk=C:\Users\User\Desktop\gaussian\pentane\pentane.chk
# hf/3-21g geom=connectivity

Title Card Required

0 1
C         1.90112100   -2.52738800   0.3352450
C         1.95917800   -1.26511900   -0.5162170
C         1.88566500   0.00651000   0.3191190
C         1.94994400   1.27836900   -0.5166270
C         1.88294900   2.54043900   0.3344760
H         2.73368100   -2.55542800   1.0395220
H         0.97620100   -2.56332700   0.9124380
H         1.94839000   -3.42846400   -0.2761640
H         1.13809600   -1.26696300   -1.2388130
H         2.88321500   -1.25626100   -1.1008460
H         0.95834700   0.00325300   0.9017990
H         2.70562300   0.00961300   1.0451030
H         1.12876900   1.27408900   -1.2391110
H         2.87394600   1.27594900   -1.1013810
H         2.71549900   2.57476000   1.0384900
H         1.92346700   3.44165300   -0.2772170
H         0.95796300   2.56981300   0.9119400
C         -1.90137400   2.52746200   -0.3344960
C         -1.95918400   1.26496000   0.5166400
C         -1.88574100   -0.00640900   -0.3191020
C         -1.94983700   -1.27853300   0.5162470
C         -1.88271800   -2.54031800   -0.3352750
H         -0.97659800   2.56356000   -0.9119220
H         -2.73412800   2.55568300   -1.0385450
H         -1.94849600   3.42836700   0.2771820
H         -2.88310600   1.25588400   1.1014610
H         -1.13794900   1.26666900   1.2390680
H         -2.70583700   -0.00931000   -1.0449370
H         -0.95851900   -0.00292700   -0.9019520
H         -2.87381300   -1.27641500   1.1010520
H         -1.12862500   -1.27439300   1.2386890
H         -0.95771300   -2.56943400   -0.9127300
H         -1.92318100   -3.44173200   0.2761240
H         -2.71525000   -2.57447500   -1.0393210
