%chk=C:\Users\User\Desktop\gaussian\pentane\pentane.chk
# hf/3-21g geom=connectivity

Title Card Required

0 1
C         3.36840900   -0.43975000   0.0077020
C         2.27101900   0.48291900   0.5179890
C         1.41885800   1.01694500   -0.6370770
C         0.39801600   1.95794600   -0.1900520
C         -0.43193400   2.74848000   0.2203500
H         4.03828900   0.09078600   -0.6704440
H         3.96529500   -0.83630700   0.8281500
H         2.93672600   -1.28211200   -0.5333630
H         1.62448300   -0.05379100   1.2142520
H         2.70183400   1.32559300   1.0615410
H         2.06424600   1.51220600   -1.3673940
H         0.94451900   0.17535900   -1.1490760
H         -1.15263700   3.44813600   0.5653940
C         -3.36883100   0.43926900   -0.0046360
C         -2.27232700   -0.48346000   -0.5167210
C         -1.41785300   -1.01696100   0.6368790
C         -0.39726800   -1.95738800   0.1880560
C         0.43220700   -2.74766000   -0.2238100
H         -2.93618000   1.28194100   0.5351750
H         -3.96744500   0.83535600   -0.8240520
H         -4.03725500   -0.09105900   0.6751060
H         -2.70409800   -1.32640200   -1.0591040
H         -1.62722800   0.05302000   -1.2144870
H         -0.94316000   -0.17511700   1.1481130
H         -2.06169300   -1.51260300   1.3683020
H         1.15252500   -3.44704000   -0.5702010
