%chk=C:\Users\User\Desktop\gaussian\pentane\pentane.chk
# hf/3-21g geom=connectivity

Title Card Required

0 1
C         -2.239187   2.261429   -0.78906
C         -2.083286   1.116586   0.20338
C         -2.114048   -0.234033   -0.48988
C         -1.863810   -1.403481   0.41624
O         -1.577574   -1.312078   1.59548
H         -1.945922   -2.397207   -0.06060
H         -3.073432   -0.404630   -0.99096
H         -2.876562   1.152290   0.95180
H         -1.145966   1.215128   0.75140
H         -1.359433   -0.293385   -1.28370
H         -1.429946   2.253603   -1.52113
H         -3.179937   2.182238   -1.33552
H         -2.225155   3.227393   -0.28575
C         1.202903   -2.482720   -0.49352
C         1.499736   -1.273646   -0.98187
C         1.456017   -0.007756   -0.18861
C         2.847863   0.591235   0.02411
C         2.786231   1.906410   0.79027
H         0.878950   -2.603791   0.53299
H         1.283101   -3.370992   -1.10521
H         1.829508   -1.191091   -2.01427
H         0.840264   0.734668   -0.70842
H         0.985836   -0.196544   0.78038
H         3.462824   -0.131974   0.56386
H         3.325837   0.746319   -0.94655
H         2.191791   2.642674   0.24741
H         2.324765   1.761754   1.76780
H         3.779551   2.326024   0.94622
