%chk=C:\Users\User\Desktop\gaussian\pentane\pentane.chk
# hf/3-21g geom=connectivity

Title Card Required

0 1
C         2.021066   -1.873341   -0.45979
C         2.310396   -0.428441   -0.82484
C         2.298135   0.504984   0.35046
O         2.017890   0.174671   1.48747
H         2.561134   1.553773   0.12368
H         3.283462   -0.318425   -1.31360
H         2.768129   -2.250846   0.23618
H         1.050621   -1.961864   0.02430
H         2.025868   -2.502723   -1.34796
H         1.580714   -0.031397   -1.53877
C         -0.415350   2.457178   0.03177
C         -1.008132   1.500724   -0.69087
C         -1.250403   0.106002   -0.21125
C         -2.739499   -0.184039   -0.01020
C         -2.982199   -1.621094   0.43294
H         -0.042402   2.251018   1.02763
H         -0.297020   3.460668   -0.35378
H         -1.377361   1.746028   -1.68330
H         -0.857210   -0.610463   -0.94058
H         -0.714372   -0.059910   0.72710
H         -3.135123   0.511962   0.73250
H         -3.274742   0.014950   -0.94220
H         -2.611251   -2.324216   -0.31401
H         -2.464797   -1.827931   1.37042
H         -4.042845   -1.819835   0.58333
