%chk=C:\Users\User\Desktop\gaussian\pentane\pentane.chk
# hf/3-21g geom=connectivity

Title Card Required

0 1
C         1.745003   1.479603   -0.24154
C         1.685022   0.390880   0.81444
C         1.563335   -0.995060   0.24908
O         1.503755   -1.250063   -0.93839
H         1.528346   -1.810384   0.99541
H         2.573312   0.395259   1.45450
H         2.594091   1.325160   -0.90466
H         0.845450   1.473515   -0.85395
H         1.840062   2.459386   0.22291
H         0.839919   0.530738   1.49662
C         -2.135470   1.297956   -0.00692
C         -1.917120   -0.102552   -0.56642
C         -1.960414   -1.165727   0.52405
H         -3.103052   1.369955   0.49199
H         -1.367486   1.547716   0.72757
H         -2.104965   2.054787   -0.79059
H         -0.958731   -0.151797   -1.08665
H         -2.682844   -0.319592   -1.31380
H         -1.771560   -2.160903   0.12250
H         -1.210780   -0.966620   1.29264
H         -2.933929   -1.177320   1.01646
