%chk=C:\Users\User\Desktop\gaussian\pentane\pentane.chk
# hf/3-21g geom=connectivity

Title Card Required

0 1
C         -1.542563   -2.528729   -0.30931
C         -1.390535   -1.268351   0.53320
C         -1.517140   0.004285   -0.29437
C         -1.381271   1.276955   0.53168
C         -1.524352   2.537316   -0.31241
H         -2.518104   -2.551806   -0.79683
H         -0.781277   -2.567376   -1.08967
H         -1.447859   -3.430724   0.29490
H         -0.419745   -1.275477   1.03601
H         -2.147740   -1.258123   1.32192
H         -0.756563   0.001108   -1.08287
H         -2.486248   0.007499   -0.80457
H         -0.410382   1.277661   1.03434
H         -2.138410   1.273176   1.32052
H         -2.500087   2.567161   -0.79918
H         -1.422249   3.439406   0.29044
H         -0.763488   2.569045   -1.09351
C         2.359481   1.256224   -0.27527
C         2.449426   -0.009309   0.56837
C         2.344975   -1.268038   -0.28374
H         3.168908   1.290844   -1.00595
H         1.416750   1.287362   -0.82374
H         2.420235   2.155973   0.33692
H         1.654736   -0.007228   1.31765
H         3.392113   -0.016578   1.11950
H         2.394161   -2.172537   0.32245
H         1.402495   -1.283916   -0.83327
H         3.154635   -1.307590   -1.01391
