%chk=C:\Users\User\Desktop\gaussian\pentane\pentane.chk
# hf/3-21g geom=connectivity

Title Card Required

0 1
C         2.102570   1.341236   -0.21962
C         1.649367   0.281980   0.77610
C         1.633622   -1.112594   0.17027
O         0.748133   -1.217855   -0.94048
H         0.646554   0.515559   1.14466
H         2.309357   0.272697   1.64766
H         2.622086   -1.361399   -0.21818
H         1.380276   -1.853679   0.93512
H         -0.149675   -1.094649   -0.60257
H         2.063815   2.339589   0.21496
H         3.128437   1.152592   -0.53897
H         1.472260   1.325858   -1.10732
C         -2.284493   -0.949455   0.61000
C         -2.290318   0.001647   -0.33080
C         -1.939547   1.434376   -0.09088
H         -2.551173   -1.971211   0.37799
H         -2.022221   -0.718078   1.63513
H         -2.562665   -0.273065   -1.34506
H         -2.763289   2.086857   -0.38327
H         -1.713791   1.613379   0.95958
H         -1.072244   1.725254   -0.68629
