%chk=C:\Users\User\Desktop\gaussian\pentane\pentane.chk
# hf/3-21g geom=connectivity

Title Card Required

0 1
C         -3.288775   0.747734   -0.00014
C         -2.460690   -0.524493   -0.00015
C         -0.978561   -0.262784   0.00013
O         -0.489627   0.860361   0.00038
O         -0.271238   -1.385175   0.00002
H         -3.070180   1.352020   -0.87804
H         -4.350641   0.508116   -0.00035
H         -3.070481   1.351798   0.87799
H         -2.676237   -1.146586   -0.87043
H         -2.676534   -1.146801   0.86989
H         0.705540   -1.180561   0.00022
C         2.962921   0.074834   -0.00015
O         2.387398   -1.015829   0.00006
N         2.348460   1.263319   -0.00008
H         2.891576   2.107057   -0.00024
H         1.328403   1.294302   0.00013
H         4.057708   0.130822   -0.00047
