%chk=C:\Users\User\Desktop\gaussian\pentane\pentane.chk
# hf/3-21g geom=connectivity

Title Card Required

0 1
C         3.428065   -0.873598   -0.39557
C         2.740505   0.276850   0.31746
C         1.260206   0.323803   0.05009
O         0.657875   -0.445534   -0.67529
O         0.668872   1.326927   0.71972
H         3.291408   -0.797412   -1.47216
H         4.495034   -0.870494   -0.17982
H         3.013393   -1.828294   -0.07849
H         3.152867   1.241473   0.01637
H         2.874099   0.220714   1.39904
H         -0.283850   1.330153   0.48169
C         -2.479815   -0.983169   -0.27099
C         -2.409143   0.391669   -0.85137
C         -2.115485   -1.065153   1.20009
O         -1.939356   1.368252   -0.29020
H         -2.821644   0.502745   -1.86833
H         -3.489191   -1.358406   -0.46420
H         -2.247621   -2.081733   1.56547
H         -1.078030   -0.781408   1.35760
H         -2.742923   -0.401836   1.79375
H         -1.808667   -1.595078   -0.88309
