%chk=C:\Users\User\Desktop\gaussian\pentane\pentane.chk
# hf/3-21g geom=connectivity

Title Card Required

0 1
C         -1.772463   -0.407767   1.07973
C         -1.579356   0.471353   -0.11653
O         -1.536762   0.070746   -1.26408
H         -1.473369   1.549428   0.09867
H         -1.875436   -1.446920   0.77991
H         -0.917323   -0.286918   1.74680
H         -2.658970   -0.083724   1.62731
C         1.627736   1.266994   0.06424
C         1.802414   0.000084   0.45258
C         1.518561   -1.192641   -0.40235
H         1.861405   2.092923   0.72186
H         1.254886   1.498423   -0.92573
H         2.182394   -0.189164   1.45210
H         0.801610   -1.859134   0.08087
H         1.109397   -0.896883   -1.36673
H         2.428145   -1.772139   -0.56849
