%chk=C:\Users\User\Desktop\gaussian\pentane\pentane.chk
# hf/3-21g geom=connectivity

Title Card Required

0 1
C         -2.413082   -1.711415   0.11861
C         -1.784263   -0.427801   -0.40758
C         -1.383835   0.503661   0.72256
C         -0.733933   1.781352   0.27652
O         -0.515087   2.073824   -0.88357
H         -0.448001   2.476867   1.08783
H         -2.248988   0.778889   1.33708
H         -2.478096   0.092547   -1.06936
H         -0.904657   -0.657703   -1.00984
H         -0.688132   0.014031   1.41443
H         -1.715148   -2.253624   0.75817
H         -3.306013   -1.497324   0.70746
H         -2.701194   -2.373543   -0.69684
C         1.758954   -1.755379   -0.11502
C         2.170519   -0.354333   -0.55097
C         2.589060   0.511055   0.63109
H         2.583572   -2.263429   0.38728
H         0.922692   -1.715088   0.58567
H         1.453253   -2.368703   -0.96269
H         1.348448   0.127865   -1.08320
H         2.997473   -0.422427   -1.26062
H         2.856386   1.519241   0.31587
H         1.780614   0.591729   1.36062
H         3.447970   0.077243   1.14537
