%chk=C:\Users\User\Desktop\gaussian\pentane\pentane.chk
# hf/3-21g geom=connectivity

Title Card Required

0 1
C         -2.61290400   -0.76598200   -0.4713690
C         -2.18925900   0.13856800   0.6705660
C         -1.17392600   1.16878000   0.2825130
O         -0.67718300   1.27132600   -0.8246580
H         -0.87481700   1.86393900   1.0885920
H         -3.03868900   0.67522000   1.1050790
H         -3.02411300   -0.18533200   -1.2952950
H         -1.76035300   -1.32468600   -0.8517660
H         -3.36603600   -1.47672000   -0.1365800
H         -1.74417400   -0.43173400   1.4919820
C         2.61347300   0.76659700   0.4685030
C         2.18854400   -0.13988400   -0.6714230
C         1.17372400   -1.16952300   -0.2805470
O         0.67753300   -1.26976100   0.8270840
H         0.87439800   -1.86655600   -1.0849370
H         3.03747400   -0.67713200   -1.1061620
H         3.36670300   1.47632300   0.1317920
H         1.76148800   1.32646200   0.8484280
H         3.02504000   0.18727800   1.2931880
H         1.74236400   0.42908500   -1.4931900
