%chk=C:\Users\User\Desktop\gaussian\pentane\pentane.chk
# hf/3-21g geom=connectivity

Title Card Required

0 1
C         3.707361   -0.572285   0.01993
C         2.260290   -0.155227   -0.03429
O         1.354655   -0.978982   0.12139
N         2.016090   1.154868   -0.26063
H         4.397776   0.257589   -0.11054
H         3.891775   -1.050460   0.97937
H         3.880426   -1.312887   -0.758029
H         1.051265   1.464945   -0.30966
H         2.767477   1.803166   -0.400406
C         -3.520908   -0.455501   -0.806586
C         -2.811897   -0.490465   0.540559
C         -1.862172   0.681154   0.72536
O         -0.823923   0.694861   -0.25073
H         -2.244512   -1.419036   0.64472
H         -3.541017   -0.473049   1.35495
H         -2.401586   1.621858   0.60396
H         -1.435714   0.665209   1.73345
H         -0.259148   -0.090128   -0.100252
H         -2.796655   -0.458375   -1.61895
H         -4.179553   -1.314247   -0.930331
H         -4.125055   0.448260   -0.899050
