%chk=C:\Users\User\Desktop\gaussian\pentane\pentane.chk
# hf/3-21g geom=connectivity

Title Card Required

0 1
C         -2.375447   0.238577   0.33569
O         -1.687358   -0.322683   1.18441
N         -2.056813   0.340029   -0.96922
H         -2.679875   0.802484   -1.60499
H         -1.187847   -0.069575   -1.29688
H         -3.330538   0.714736   0.59283
C         1.693587   1.514419   -0.132463
C         2.053694   0.221476   0.587331
C         1.737257   -1.017369   -0.23348
O         0.354151   -1.119598   -0.56324
H         1.516974   0.161627   1.53785
H         3.120276   0.206097   0.82571
H         2.269083   -0.984375   -1.18539
H         2.062020   -1.915120   0.30043
H         -0.166169   -1.031786   0.257769
H         0.624604   1.560322   -0.33487
H         1.959622   2.385223   0.465459
H         2.220654   1.585790   -1.085212
