%chk=C:\Users\User\Desktop\gaussian\pentane\pentane.chk
# hf/3-21g geom=connectivity

Title Card Required

0 1
C         2.406185   0.720762   -0.37650
C         1.687176   -0.611107   -0.27315
O         1.047062   -0.783538   0.98718
H         1.698282   1.545788   -0.29092
H         2.918120   0.808932   -1.33568
H         3.139799   0.814711   0.42231
H         0.962302   -0.715586   -1.08739
H         2.395936   -1.433653   -0.35751
H         0.314089   -0.154330   1.01557
C         -1.446019   1.421468   0.05753
C         -1.989406   0.236261   0.35640
C         -2.093000   -0.912845   -0.59346
H         -1.397535   2.218516   0.78645
H         -1.050158   1.618975   -0.93124
H         -2.380187   0.081614   1.35733
H         -3.129937   -1.233516   -0.70050
H         -1.712125   -0.642818   -1.57768
H         -1.524699   -1.767568   -0.22307
