%chk=C:\Users\User\Desktop\gaussian\pentane\pentane.chk
# hf/3-21g geom=connectivity

Title Card Required

0 1
C         1.800912   1.483895   -0.15725
C         2.459954   0.134261   -0.40921
C         1.483562   -1.023795   -0.29560
O         0.892844   -1.123714   1.00158
H         3.279905   -0.023112   0.29799
H         2.903228   0.108542   -1.40806
H         0.646121   -0.877456   -0.97854
H         1.973212   -1.964250   -0.56438
H         1.594215   -1.340908   1.62524
H         2.524804   2.295086   -0.22423
H         1.016190   1.671326   -0.89133
H         1.344187   1.512463   0.83034
C         -2.419512   -1.059146   -0.41977
C         -2.177641   0.437009   -0.58131
C         -1.965589   1.121729   0.76347
H         -1.580767   -1.527707   0.09658
H         -3.316873   -1.239174   0.17428
H         -2.552161   -1.553423   -1.38246
H         -3.022135   0.894178   -1.10188
H         -1.302491   0.600615   -1.21480
H         -1.774885   2.188867   0.64740
H         -2.847695   1.005248   1.39520
H         -1.117716   0.675697   1.28410
