%chk=C:\Users\User\Desktop\gaussian\pentane\pentane.chk
# hf/3-21g geom=connectivity

Title Card Required

0 1
C         3.36277300   -0.66409800   0.0004090
C         1.88845000   -0.36100900   0.0002720
C         4.28215100   0.54638900   -0.0005370
O         1.04664100   -1.25766300   -0.0001450
O         1.59194000   0.92539900   0.0004980
H         0.59677600   1.03260600   0.0003740
H         5.32167000   0.22293600   -0.0003870
H         4.11532500   1.16468600   -0.8796470
H         4.11545600   1.16596500   0.8776920
H         3.53948000   -1.29860600   0.8702810
H         3.53942000   -1.29999900   -0.8684440
C         -3.36277500   0.66409700   -0.0002470
C         -1.88845100   0.36101100   -0.0003480
C         -4.28215000   -0.54639200   0.0003970
O         -1.04664100   1.25766500   0.0001530
O         -1.59193900   -0.92539700   -0.0004860
H         -0.59677600   -1.03260400   -0.0003450
H         -4.11525300   -1.16496500   0.8792990
H         -5.32167000   -0.22294300   0.0004300
H         -4.11552300   -1.16569300   -0.8780390
H         -3.53935400   1.29971200   0.8688330
H         -3.53955400   1.29889000   -0.8698920
