%chk=C:\Users\User\Desktop\gaussian\pentane\pentane.chk
# hf/3-21g geom=connectivity

Title Card Required

0 1
C         2.823883   0.091105   0.00004
O         2.244632   -1.104526   -0.00020
O         2.250810   1.160932   0.00032
H         3.912691   -0.011642   -0.00002
H         1.260573   -0.977499   -0.00017
C         -2.322538   0.756710   -0.00024
C         -0.872625   0.394434   -0.00023
C         -3.259751   -0.437084   0.00029
O         -0.469759   -0.762023   0.00005
H         -0.144804   1.218704   -0.00071
H         -2.482307   1.404807   0.86749
H         -4.296766   -0.108110   0.00026
H         -3.093179   -1.058562   -0.87720
H         -3.093010   -1.057900   0.87821
H         -2.482479   1.404154   -0.86844
