%chk=C:\Users\User\Desktop\gaussian\pentane\pentane.chk
# hf/3-21g geom=connectivity

Title Card Required

0 1
C         1.692554   1.890323   0.55122
C         1.696155   0.837820   -0.05885
C         1.696094   -0.446302   -0.75260
C         1.699847   -1.624845   0.22336
H         1.689767   2.814274   1.07467
H         0.817955   -0.498533   -1.39961
H         2.570081   -0.498443   -1.40440
H         1.690840   -2.568392   -0.32087
H         2.587761   -1.595631   0.85256
H         0.824648   -1.588564   0.86988
C         -1.992465   0.675944   -1.07563
C         -2.051117   -0.552148   -0.17473
C         -1.838000   -0.190114   1.29027
H         -2.775040   1.386562   -0.80549
H         -1.033943   1.186638   -0.97008
H         -2.127307   0.414058   -2.12521
H         -1.293642   -1.275106   -0.48715
H         -3.015637   -1.050222   -0.29451
H         -1.870230   -1.070362   1.93269
H         -0.872619   0.298954   1.42879
H         -2.611044   0.500691   1.63046
