%chk=C:\Users\User\Desktop\gaussian\pentane\pentane.chk
# hf/3-21g geom=connectivity

Title Card Required

0 1
C         1.060389   1.852468   0.46538
C         1.239186   1.100595   -0.85023
C         2.162689   -0.114844   -0.76843
C         1.565004   -1.337949   -0.09163
O         1.287908   -1.161466   1.29868
H         3.094696   0.160223   -0.26175
H         2.443969   -0.420801   -1.78051
H         0.602603   -1.578166   -0.54486
H         2.223994   -2.199645   -0.23700
H         2.124047   -0.980584   1.74138
H         1.641616   1.789243   -1.59669
H         0.264668   0.776168   -1.22655
H         2.029018   2.172848   0.85424
H         0.450013   2.744203   0.32186
H         0.585625   1.227933   1.21811
C         -2.578831   1.101256   0.26928
C         -2.195448   -0.361158   0.45914
C         -2.348203   -1.159405   -0.83011
H         -1.952885   1.570447   -0.49164
H         -3.616786   1.190969   -0.05541
H         -2.464030   1.670126   1.19176
H         -2.822384   -0.804341   1.23574
H         -1.167249   -0.432172   0.81911
H         -2.067071   -2.203797   -0.69303
H         -3.380375   -1.133566   -1.18319
H         -1.721450   -0.743134   -1.62132
