%chk=C:\Users\User\Desktop\gaussian\pentane\pentane.chk
# hf/3-21g geom=connectivity

Title Card Required

0 1
C         2.199678   -1.624977   0.42530
C         1.327633   -0.617143   0.32900
C         1.393756   0.472493   -0.69208
C         1.532712   1.846565   -0.03694
H         2.109767   -2.376406   1.19741
H         3.023693   -1.717845   -0.27136
H         0.514425   -0.549927   1.04663
H         2.230288   0.287306   -1.36923
H         0.480525   0.461072   -1.29360
H         0.693230   2.033311   0.63348
H         2.451306   1.901888   0.54682
H         1.552084   2.639519   -0.78432
C         -2.233844   0.842926   0.85878
C         -2.180304   0.217813   -0.32071
C         -2.071854   -1.263060   -0.49092
H         -2.313010   1.919185   0.92218
H         -2.205478   0.285669   1.78706
H         -2.216445   0.815028   -1.22660
H         -1.153432   -1.529581   -1.01757
H         -2.068032   -1.768243   0.47423
H         -2.905575   -1.648682   -1.07965
