%chk=C:\Users\User\Desktop\gaussian\pentane\pentane.chk
# hf/3-21g geom=connectivity

Title Card Required

0 1
C         2.465494   0.868447   -0.27316
C         1.744462   0.117275   0.83075
C         0.914854   -1.030354   0.33560
O         0.831922   -1.370841   -0.82913
H         0.355938   -1.580097   1.11590
H         2.442465   -0.290969   1.56925
H         3.122629   0.202063   -0.82861
H         1.751429   1.287871   -0.97956
H         3.061297   1.680223   0.13998
H         1.068955   0.768911   1.39328
C         -1.336225   1.375227   -0.47800
C         -2.190322   0.692096   0.29021
C         -2.568015   -0.737915   0.06850
H         -1.112079   2.414425   -0.27916
H         -0.851843   0.905304   -1.32490
H         -2.656497   1.199786   1.12898
H         -3.635171   -0.825581   -0.14204
H         -2.011133   -1.166619   -0.76325
H         -2.372856   -1.337248   0.95976
