%chk=C:\Users\User\Desktop\gaussian\pentane\pentane.chk
# hf/3-21g geom=connectivity

Title Card Required

0 1
C         -1.706729   -0.039179   -0.14097
C         -3.170912   -0.356459   -0.07063
O         -0.942029   -0.455349   -0.99081
O         -1.328756   0.769351   0.86281
H         -0.374670   0.971259   0.74610
H         -3.435593   -1.040814   -0.86851
H         -3.403690   -0.794287   0.89802
H         -3.743747   0.564748   -0.16025
C         2.213469   -0.664260   -0.42080
C         1.956571   0.800907   -0.55880
C         1.772464   -1.258932   0.90412
O         1.295734   1.474691   0.21500
H         2.412415   1.285290   -1.43866
H         1.692909   -1.134163   -1.26208
H         2.045209   -2.311257   0.95472
H         2.242828   -0.740981   1.73873
H         0.694531   -1.183252   1.02188
H         3.281036   -0.818550   -0.60358
