%chk=C:\Users\User\Desktop\gaussian\pentane\pentane.chk
# hf/3-21g geom=connectivity

Title Card Required

0 1
C         -3.807992   -0.755605   0.00010
C         -2.981527   0.517684   0.00532
C         -1.498427   0.258094   -0.00104
O         -1.009396   -0.865431   -0.00764
O         -0.792329   1.379834   0.00136
H         -3.585460   -1.365064   0.87345
H         -4.870355   -0.517877   0.00517
H         -3.591400   -1.354020   -0.88233
H         -3.195308   1.133852   0.88025
H         -3.201138   1.144984   -0.86015
H         0.188285   1.175741   -0.00253
C         3.967006   -0.054855   0.00294
C         2.461864   -0.045689   -0.00015
O         1.843815   1.028213   -0.00584
N         1.838888   -1.235034   0.00328
H         4.386835   -1.057687   0.00980
H         4.316204   0.479233   -0.87812
H         4.312766   0.489966   0.87875
H         0.818797   -1.254837   -0.00049
H         2.366291   -2.087754   0.00710
