%chk=C:\Users\User\Desktop\gaussian\pentane\pentane.chk
# hf/3-21g geom=connectivity

Title Card Required

0 1
C         -1.537338   1.861296   -0.12125
C         -2.687158   0.921420   -0.47161
C         -2.278410   -0.539836   -0.65320
C         -1.931968   -1.276555   0.63380
O         -0.741018   -0.818726   1.26183
H         -1.428933   -0.609795   -1.34105
H         -3.103457   -1.083827   -1.12338
H         -2.730798   -1.133028   1.36395
H         -1.863903   -2.350465   0.42808
H         -0.004440   -1.026838   0.66388
H         -3.159278   1.268561   -1.39390
H         -3.455289   0.976792   0.30523
H         -0.769959   1.826796   -0.89766
H         -1.886405   2.891801   -0.04791
H         -1.072988   1.578322   0.82018
C         2.340764   1.000466   1.08730
C         3.043233   0.429577   -0.13789
C         2.089751   -0.242892   -1.10780
O         1.416416   -1.371351   -0.53214
H         3.809535   -0.291632   0.16284
H         3.564260   1.223217   -0.67941
H         1.292505   0.443428   -1.39274
H         2.613384   -0.551886   -2.01573
H         2.085078   -2.010460   -0.26119
H         1.817253   0.225171   1.64410
H         3.054228   1.476602   1.75847
H         1.602786   1.746994   0.79265
