%chk=C:\Users\User\Desktop\gaussian\pentane\pentane.chk
# hf/3-21g geom=connectivity

Title Card Required

0 1
C         -3.521078   -0.632061   0.22527
C         -2.472649   0.178611   -0.52619
C         -1.354273   0.667740   0.38523
C         -0.269076   1.436206   -0.35702
C         0.850988   1.925706   0.55233
C         1.927910   2.688377   -0.20921
H         -0.905915   -0.190665   0.89565
H         -1.779218   1.304677   1.16790
H         -2.042729   -0.428858   -1.32731
H         -2.943686   1.038711   -1.00960
H         -4.318516   -0.971288   -0.43544
H         -3.973468   -0.037368   1.01995
H         -3.068974   -1.511860   0.68535
H         0.154399   0.798154   -1.14035
H         -0.717806   2.293398   -0.86989
H         1.297922   1.069237   1.06436
H         0.425787   2.564766   1.33096
H         2.721914   3.032945   0.452969
H         1.503851   3.561023   -0.707784
H         2.381061   2.056937   -0.974769
C         0.440195   -2.582366   -0.33632
C         1.558161   -2.075039   0.56613
C         2.652142   -1.370266   -0.22637
H         -0.009289   -1.758862   -0.89353
H         0.825836   -3.300882   -1.06112
H         -0.349844   -3.071344   0.23393
H         1.988377   -2.910813   1.12191
H         1.146211   -1.390027   1.31050
H         3.445096   -0.997568   0.42196
H         3.101843   -2.050053   -0.95159
H         2.243226   -0.521710   -0.77713
