%chk=C:\Users\User\Desktop\gaussian\pentane\pentane.chk
# hf/3-21g geom=connectivity

Title Card Required

0 1
C         -1.902302   -0.064592   0.10067
C         -3.281334   0.520740   0.12879
O         -1.332267   -0.533028   1.07444
O         -1.360214   -0.014838   -1.12129
H         -0.454002   -0.410509   -1.06199
H         -3.683064   0.465859   1.13399
H         -3.242443   1.554985   -0.20774
H         -3.918970   -0.025670   -0.56350
C         2.473470   0.408352   0.59719
C         2.302985   -0.894278   -0.16324
C         1.900608   1.610552   -0.14179
O         0.930758   -1.232292   -0.38562
H         2.001678   0.309924   1.57869
H         3.541859   0.551528   0.77714
H         2.749497   -0.817591   -1.15466
H         2.796167   -1.712492   0.36701
H         0.453765   -1.208407   0.46254
H         0.826984   1.507545   -0.29041
H         2.072969   2.530521   0.41505
H         2.366312   1.718430   -1.12232
