%chk=C:\Users\User\Desktop\gaussian\pentane\pentane.chk
# hf/3-21g geom=connectivity

Title Card Required

0 1
C         -2.212607   -0.773679   0.54193
C         -1.835732   0.272615   -0.46026
O         -1.363357   1.357102   -0.17839
H         -2.009558   0.003578   -1.51832
H         -2.030796   -0.420764   1.55306
H         -3.264566   -1.034131   0.41500
H         -1.632483   -1.677642   0.34778
C         1.354520   -1.259396   -0.61190
C         1.603982   -0.331976   0.57129
C         2.122793   1.028590   0.12396
H         0.638598   -0.816307   -1.30666
H         2.277820   -1.433344   -1.16630
H         0.968808   -2.229331   -0.29592
H         2.320343   -0.797382   1.25159
H         0.680229   -0.195295   1.13695
H         2.317660   1.681316   0.97423
H         3.051293   0.921487   -0.43903
H         1.391772   1.524067   -0.51544
