%chk=C:\Users\User\Desktop\gaussian\pentane\pentane.chk
# hf/3-21g geom=connectivity

Title Card Required

0 1
C         -2.012221   -1.499101   0.58872
C         -2.066807   -0.482984   -0.54507
C         -2.711783   0.826364   -0.10715
H         -1.434061   -1.111464   1.42891
H         -3.016265   -1.725060   0.95126
H         -1.547802   -2.432545   0.27191
H         -2.624329   -0.901374   -1.38584
H         -1.055705   -0.289722   -0.91024
H         -2.748488   1.551113   -0.92044
H         -3.732791   0.656041   0.23753
H         -2.155336   1.275700   0.71699
C         1.695340   -2.200708   -0.27430
C         2.182297   -1.037357   0.16704
C         1.848214   0.296782   -0.41776
C         1.116480   1.195181   0.58106
C         0.722391   2.531500   -0.03388
H         1.028804   -2.236803   -1.12739
H         1.952266   -3.136959   0.20140
H         2.845281   -1.038862   1.02793
H         2.763893   0.804005   -0.73794
H         1.231141   0.160031   -1.31007
H         0.227796   0.671857   0.94067
H         1.756393   1.357523   1.45218
H         1.602191   3.069208   -0.38999
H         0.055855   2.381469   -0.88446
H         0.207700   3.167773   0.68571
