%chk=C:\Users\User\Desktop\gaussian\pentane\pentane.chk
# hf/3-21g geom=connectivity

Title Card Required

0 1
C         1.39926900   1.34188900   0.4142530
C         1.99811500   0.10398000   -0.0710300
C         2.49367200   -0.92975700   -0.4751440
H         1.57649700   1.45986400   1.4823080
H         1.82939700   2.20022200   -0.0998810
H         0.32339900   1.34119100   0.2403760
H         2.93168900   -1.82879200   -0.8313490
C         -2.49369900   0.92974300   -0.4751510
C         -1.99814700   -0.10398500   -0.0710000
C         -1.39922800   -1.34187200   0.4142780
H         -2.93178200   1.82874500   -0.8313570
H         -1.58247000   -1.46336400   1.4809190
H         -1.82424400   -2.19973300   -0.1048690
H         -0.32237400   -1.33813000   0.2466200
