%chk=C:\Users\User\Desktop\gaussian\pentane\pentane.chk
# hf/3-21g geom=connectivity

Title Card Required

0 1
C         -2.887823   0.189782   -0.00037
O         -2.262614   1.242603   0.00012
N         -2.332931   -1.040046   0.00007
H         -2.921987   -1.852286   0.00010
H         -1.320793   -1.143596   0.00044
H         -3.987391   0.166949   -0.00022
C         3.357973   -0.315014   -0.00015
C         2.302742   0.775897   0.00002
C         0.895614   0.263377   0.00012
O         0.612746   -0.927236   0.00009
H         0.089264   1.013462   0.00022
H         2.396021   1.436148   -0.86810
H         4.356557   0.117302   -0.00021
H         3.255364   -0.950500   0.87724
H         3.255198   -0.950363   -0.87763
H         2.396188   1.436019   0.86823
