%chk=C:\Users\User\Desktop\gaussian\pentane\pentane.chk
# hf/3-21g geom=connectivity

Title Card Required

0 1
C         3.790949   0.767679   -0.26791
C         2.980945   -0.452453   0.13174
C         1.495922   -0.241708   -0.01594
O         0.985414   0.782892   -0.43482
O         0.803724   -1.317227   0.36937
H         3.526036   1.625826   0.34644
H         4.855781   0.572975   -0.15073
H         3.598882   1.035588   -1.30472
H         3.167450   -0.739506   1.16785
H         3.243875   -1.324045   -0.47019
H         -0.165029   -1.150007   0.23124
C         -2.034841   1.191172   0.77774
C         -2.512332   -0.016572   0.02361
O         -1.854229   -1.056535   -0.04807
N         -3.720537   0.081486   -0.57757
H         -2.735985   2.021012   0.73698
H         -1.873663   0.905735   1.81570
H         -1.073326   1.487216   0.35982
H         -4.051767   -0.698186   -1.11983
H         -4.251616   0.931229   -0.55676
