%chk=C:\Users\User\Desktop\gaussian\pentane\pentane.chk
# hf/3-21g geom=connectivity

Title Card Required

0 1
C         3.638015   0.524933   -0.74605
C         2.842124   0.198901   0.50488
C         1.441455   -0.257357   0.20339
O         0.978035   -0.361051   -0.92258
O         0.753346   -0.537606   1.31598
H         3.156933   1.317648   -1.31508
H         4.642911   0.848882   -0.48136
H         3.713728   -0.345702   -1.39394
H         2.763970   1.060123   1.17070
H         3.316898   -0.588803   1.09234
H         -0.155162   -0.820996   1.04208
C         -2.792228   0.713548   -0.598324
C         -2.792860   -0.766477   -0.26084
C         -2.258597   1.583740   0.53199
O         -1.481920   -1.278285   -0.00429
H         -2.201054   0.869781   -1.50485
H         -3.818445   1.000170   -0.84139
H         -3.361748   -0.948729   0.65096
H         -3.254694   -1.340842   -1.06756
H         -0.895499   -1.039678   -0.74377
H         -1.220862   1.344319   0.75823
H         -2.307267   2.639559   0.26919
H         -2.842853   1.436062   1.44129
