%chk=C:\Users\User\Desktop\gaussian\pentane\pentane.chk
# hf/3-21g geom=connectivity

Title Card Required

0 1
C         0.972032   -2.438059   -0.35336
C         1.724017   -1.408297   0.04702
C         1.601407   -0.012079   -0.47164
C         1.251921   0.988270   0.63078
C         1.168094   2.412297   0.09751
H         0.217261   -2.309183   -1.11941
H         1.097785   -3.426289   0.06712
H         2.471475   -1.575482   0.81817
H         2.548056   0.293042   -0.92996
H         0.835950   0.024987   -1.25097
H         0.298130   0.700795   1.07779
H         2.003801   0.929349   1.42230
H         2.121520   2.721597   -0.33321
H         0.409191   2.483119   -0.68269
H         0.909484   3.120852   0.88425
C         -2.228625   1.057866   -0.72281
C         -2.208134   -0.239402   -0.40396
C         -2.214490   -0.769764   0.99314
H         -2.224104   1.384297   -1.75356
H         -2.254274   1.820727   0.04555
H         -2.184719   -0.970927   -1.20574
H         -1.317874   -1.362591   1.18378
H         -2.254905   0.042198   1.71879
H         -3.074113   -1.421479   1.15777
