%chk=C:\Users\User\Desktop\gaussian\pentane\pentane.chk
# hf/3-21g geom=connectivity

Title Card Required

0 1
C         -1.422068   1.759770   0.09734
C         -2.397401   0.706866   -0.42094
C         -1.764102   -0.648685   -0.73038
C         -1.333549   -1.456006   0.48589
O         -0.238202   -0.890647   1.20141
H         -0.901142   -0.513774   -1.39157
H         -2.484113   -1.259887   -1.28299
H         -2.154515   -1.511388   1.20246
H         -1.095121   -2.479805   0.17846
H         0.515642   -0.865786   0.59586
H         -2.872157   1.081691   -1.33077
H         -3.201242   0.561331   0.30635
H         -0.604322   1.903288   -0.61210
H         -1.921855   2.720119   0.22623
H         -0.989678   1.460068   1.04883
C         2.542486   -1.025986   -0.73461
C         2.262021   0.278242   -0.63111
C         2.551079   1.115778   0.57247
H         2.309892   -1.581248   -1.63274
H         3.021023   -1.559708   0.07733
H         1.786544   0.774351   -1.47160
H         1.629761   1.536577   0.97815
H         3.033718   0.528133   1.35211
H         3.202391   1.951346   0.31272
