%chk=C:\Users\User\Desktop\gaussian\pentane\pentane.chk
# hf/3-21g geom=connectivity

Title Card Required

0 1
C         2.222532   -0.985469   0.24067
C         1.911048   0.412380   -0.03174
C         1.649480   1.577655   -0.25729
H         2.177234   -1.574525   -0.67418
H         3.222440   -1.081029   0.66136
H         1.510003   -1.405557   0.94963
H         1.425755   2.596865   -0.45290
C         -1.262547   -1.255763   -0.58727
C         -1.580683   -0.312342   0.56612
C         -2.114279   1.024390   0.06742
H         -2.155486   -1.450192   -1.18344
H         -0.512794   -0.813137   -1.24485
H         -0.882112   -2.214929   -0.23475
H         -0.680203   -0.139830   1.15904
H         -2.312275   -0.776940   1.23075
H         -2.336569   1.702430   0.89114
H         -1.380118   1.507071   -0.57888
H         -3.029171   0.884667   -0.51046
