%chk=C:\Users\User\Desktop\gaussian\pentane\pentane.chk
# hf/3-21g geom=connectivity

Title Card Required

0 1
 C                  2.45007944   -0.68442833    0.22630746
 C                  2.45012844    0.68442567   -0.44382754
 H                  1.57108044   -0.81633933    0.85635246
 H                  3.33071444   -0.81468233    0.85417946
 H                  2.44872044   -1.48518233   -0.51244654
 H                  2.44855044    1.48517967    0.29492646
 H                  1.57127644    0.81629067   -1.07408554
 H                  3.33091144    0.81472267   -1.07148354
 C                 -2.45008444   -0.68442567   -0.22630846
 C                 -2.45012344    0.68442833    0.44382754
 H                 -2.44874244   -1.48517967    0.51244654
 H                 -1.57108244   -0.81634667   -0.85634446
 H                 -3.33071544   -0.81466867   -0.85418746
 H                 -1.57127444    0.81628433    1.07409154
 H                 -3.33090844    0.81473533    1.07147754
 H                 -2.44853044    1.48518233   -0.29492646

 1 2 1.0 3 1.0 4 1.0 5 1.0
 2 6 1.0 7 1.0 8 1.0
 3
 4
 5
 6
 7
 8
 9 10 1.0 11 1.0 12 1.0 13 1.0
 10 14 1.0 15 1.0 16 1.0
 11
 12
 13
 14
 15
 16

