%chk=C:\Users\User\Desktop\gaussian\pentane\pentane.chk
# hf/3-21g geom=connectivity

Title Card Required

0 1
 C                 -1.21520003    1.23575149   -0.24157700
 C                 -2.11245703    0.38606049    0.26546400
 C                 -2.22444303   -1.05302351   -0.12469000
 H                 -1.18068203    2.26979449    0.07249400
 H                 -0.49589503    0.90782549   -0.98145700
 H                 -2.81369503    0.75000949    1.00964000
 H                 -3.21220503   -1.26835151   -0.53533400
 H                 -1.47385703   -1.31394151   -0.86938300
 H                 -2.09081703   -1.70440451    0.74098400
 C                  1.21536403   -1.23576849    0.24210400
 C                  2.11201803   -0.38598549   -0.26584900
 C                  2.22463703    1.05298151    0.12453300
 H                  1.18036803   -2.26970649   -0.07225700
 H                  0.49705203   -0.90804849    0.98303900
 H                  2.81224603   -0.74977749   -1.01105600
 H                  2.08989003    1.70461051   -0.74078500
 H                  1.47510203    1.31378051    0.87032800
 H                  3.21298103    1.26811351    0.53387900

 1 2 2.0 4 1.0 5 1.0
 2 3 1.0 6 1.0
 3 7 1.0 8 1.0 9 1.0
 4
 5
 6
 7
 8
 9
 10 11 2.0 13 1.0 14 1.0
 11 12 1.0 15 1.0
 12 16 1.0 17 1.0 18 1.0
 13
 14
 15
 16
 17
 18

