%chk=C:\Users\User\Desktop\gaussian\pentane\pentane.chk
# hf/3-21g geom=connectivity

Title Card Required

0 1
 C                 -1.56242347    1.58882577   -0.31067428
 C                 -2.45968047    0.73913477    0.19636672
 C                 -2.57166647   -0.69994923   -0.19378728
 H                 -1.52790547    2.62286877    0.00339672
 H                 -0.84311847    1.26089977   -1.05055428
 H                 -3.16091847    1.10308377    0.94054272
 H                 -3.55942847   -0.91527723   -0.60443128
 H                 -1.82108047   -0.96086723   -0.93848028
 H                 -2.43804047   -1.35133023    0.67188672
 C                  1.56258747   -1.58884277    0.31120128
 C                  2.45924147   -0.73905977   -0.19675172
 C                  2.57186047    0.69990723    0.19363028
 H                  1.52759147   -2.62278077   -0.00315972
 H                  0.84427547   -1.26112277    1.05213628
 H                  3.15946947   -1.10285177   -0.94195872
 H                  2.43711347    1.35153623   -0.67168772
 H                  1.82232547    0.96070623    0.93942528
 H                  3.56020447    0.91503923    0.60297628

 1 2 2.0 4 1.0 5 1.0
 2 3 1.0 6 1.0
 3 7 1.0 8 1.0 9 1.0
 4
 5
 6
 7
 8
 9
 10 11 2.0 13 1.0 14 1.0
 11 12 1.0 15 1.0
 12 16 1.0 17 1.0 18 1.0
 13
 14
 15
 16
 17
 18

