%chk=C:\Users\User\Desktop\gaussian\pentane\pentane.chk
# hf/3-21g geom=connectivity

Title Card Required

0 1
 C                 -1.73334636   -1.23363371    0.43248967
 C                 -1.42236836   -0.05067571   -0.47607333
 C                 -1.52332336    1.27855929    0.26160667
 H                 -1.04367236   -1.26495271    1.27745567
 H                 -2.74453336   -1.15607971    0.83462767
 H                 -1.65465636   -2.18170771   -0.09907733
 H                 -2.10963936   -0.05106371   -1.32467233
 H                 -0.41884736   -0.16348771   -0.89145533
 H                 -1.29694236    2.12088529   -0.39186933
 H                 -2.52857036    1.42248529    0.66047567
 H                 -0.82651136    1.30967929    1.10068867
 C                  1.73304736   -1.23376929   -0.43249367
 C                  1.42251136   -0.05072829    0.47611333
 C                  1.52349836    1.27846171   -0.26163967
 H                  1.04313336   -1.26503929   -1.27727167
 H                  2.74413336   -1.15637829   -0.83491567
 H                  1.65435136   -2.18180629    0.09913733
 H                  2.10999936   -0.05119729    1.32453633
 H                  0.41907436   -0.16335229    0.89175833
 H                  1.29748336    2.12084571    0.39188833
 H                  2.52865036    1.42219071   -0.66081967
 H                  0.82643436    1.30968671   -1.10049867

 1 2 1.0 4 1.0 5 1.0 6 1.0
 2 3 1.0 7 1.0 8 1.0
 3 9 1.0 10 1.0 11 1.0
 4
 5
 6
 7
 8
 9
 10
 11
 12 13 1.0 15 1.0 16 1.0 17 1.0
 13 14 1.0 18 1.0 19 1.0
 14 20 1.0 21 1.0 22 1.0
 15
 16
 17
 18
 19
 20
 21
 22

